 xtb: 6.7.1 (edcfbbe)
          12202401523D

 25 24  0     0  0            999 V2000
    1.6264    0.5975   -0.9378 O   0  0  0  0  0  0  0  0  0  0  0  0
    2.6002    0.5995   -0.2335 C   0  0  0  0  0  0  0  0  0  0  0  0
    3.1836    1.3135    0.5310 O   0  0  0  0  0  0  0  0  0  0  0  0
    3.4159   -0.9788   -0.3650 C   0  0  0  0  0  0  0  0  0  0  0  0
    2.7684   -2.0565    0.5015 C   0  0  0  0  0  0  0  0  0  0  0  0
    1.2843   -2.3945    0.1972 C   0  0  0  0  0  0  0  0  0  0  0  0
    0.8655   -2.8729   -1.2239 C   0  0  0  0  0  0  0  0  0  0  0  0
    1.5404   -4.1572   -1.8040 C   0  0  0  0  0  0  0  0  0  0  0  0
    1.2859   -5.5236   -1.0898 C   0  0  0  0  0  0  0  0  0  0  0  0
   -0.1982   -5.9712   -0.9098 C   0  0  0  0  0  0  0  0  0  0  0  0
   -0.9325   -5.7287   -1.9897 F   0  0  0  0  0  0  0  0  0  0  0  0
   -0.2239   -7.2905   -0.7077 F   0  0  0  0  0  0  0  0  0  0  0  0
   -0.7805   -5.4051    0.1345 F   0  0  0  0  0  0  0  0  0  0  0  0
    1.8702   -6.4652   -1.8676 F   0  0  0  0  0  0  0  0  0  0  0  0
    1.8957   -5.5905    0.0996 F   0  0  0  0  0  0  0  0  0  0  0  0
    1.0579   -4.3027   -3.0614 F   0  0  0  0  0  0  0  0  0  0  0  0
    2.8627   -4.0162   -1.9282 F   0  0  0  0  0  0  0  0  0  0  0  0
   -0.4639   -3.1674   -1.1420 F   0  0  0  0  0  0  0  0  0  0  0  0
    0.9644   -1.9179   -2.1425 F   0  0  0  0  0  0  0  0  0  0  0  0
    0.9298   -3.4175    1.0318 F   0  0  0  0  0  0  0  0  0  0  0  0
    0.4837   -1.3796    0.5366 F   0  0  0  0  0  0  0  0  0  0  0  0
    3.4351   -3.2617    0.4688 F   0  0  0  0  0  0  0  0  0  0  0  0
    2.8055   -1.6860    1.7992 F   0  0  0  0  0  0  0  0  0  0  0  0
    3.4157   -1.4281   -1.6649 F   0  0  0  0  0  0  0  0  0  0  0  0
    4.7354   -0.9151   -0.0137 F   0  0  0  0  0  0  0  0  0  0  0  0
  1  2  2  0  0  0  0
  2  3  2  0  0  0  0
  2  4  1  0  0  0  0
  4  5  1  0  0  0  0
  5  6  1  0  0  0  0
  6  7  1  0  0  0  0
  7  8  1  0  0  0  0
  8  9  1  0  0  0  0
  9 10  1  0  0  0  0
 10 11  1  0  0  0  0
 10 12  1  0  0  0  0
 10 13  1  0  0  0  0
  9 14  1  0  0  0  0
  9 15  1  0  0  0  0
  8 16  1  0  0  0  0
  8 17  1  0  0  0  0
  7 18  1  0  0  0  0
  7 19  1  0  0  0  0
  6 20  1  0  0  0  0
  6 21  1  0  0  0  0
  5 22  1  0  0  0  0
  5 23  1  0  0  0  0
  4 24  1  0  0  0  0
  4 25  1  0  0  0  0
M  CHG  1   1  -1
M  END
