 xtb: 6.7.1 (edcfbbe)
          12202401523D

 10  9  0     0  0            999 V2000
    1.0249    0.0618    0.0322 F   0  0  0  0  0  0  0  0  0  0  0  0
    2.3955    0.0457    0.1115 C   0  0  0  0  0  0  0  0  0  0  0  0
    2.9363    0.0101    1.7467 C   0  0  0  0  0  0  0  0  0  0  0  0
    3.6201   -0.9660    1.9587 O   0  0  0  0  0  0  0  0  0  0  0  0
    2.5332    0.9602    2.3716 O   0  0  0  0  0  0  0  0  0  0  0  0
    2.8781   -1.1364   -0.7241 C   0  0  0  0  0  0  0  0  0  0  0  0
    2.4418   -1.0921   -2.0124 F   0  0  0  0  0  0  0  0  0  0  0  0
    4.2099   -1.1963   -0.8105 F   0  0  0  0  0  0  0  0  0  0  0  0
    2.4482   -2.3100   -0.2522 F   0  0  0  0  0  0  0  0  0  0  0  0
    2.8053    1.1873   -0.5320 F   0  0  0  0  0  0  0  0  0  0  0  0
  1  2  1  0  0  0  0
  2  3  1  0  0  0  0
  3  4  2  0  0  0  0
  3  5  2  0  0  0  0
  2  6  1  0  0  0  0
  6  7  1  0  0  0  0
  6  8  1  0  0  0  0
  6  9  1  0  0  0  0
  2 10  1  0  0  0  0
M  CHG  1   1  -1
M  END
