8

S          1.13087       -0.01356        0.01045
C          0.52715       -1.50070       -0.73526
O          0.57403       -0.07248        1.36013
O          0.57404        1.03280       -0.84411
O          2.58143       -0.17098       -0.06849
H          0.89247       -2.35611       -0.16292
H         -0.56479       -1.48212       -0.72595
H          0.89248       -1.55372       -1.76312
