 xtb: 6.7.1 (edcfbbe)
          12202401523D

 14 13  0     0  0            999 V2000
    1.0605    0.1617    0.0843 F   0  0  0  0  0  0  0  0  0  0  0  0
    2.4096    0.0840    0.0312 C   0  0  0  0  0  0  0  0  0  0  0  0
    2.8804   -0.5389   -1.2971 C   0  0  0  0  0  0  0  0  0  0  0  0
    2.4786    0.3326   -2.2811 F   0  0  0  0  0  0  0  0  0  0  0  0
    4.2505   -0.4364   -1.2999 F   0  0  0  0  0  0  0  0  0  0  0  0
    2.3427   -2.1464   -1.5737 B   0  0  0  0  0  0  0  0  0  0  0  0
    2.8600   -2.9519   -0.5816 F   0  0  0  0  0  0  0  0  0  0  0  0
    0.9648   -2.1591   -1.5321 F   0  0  0  0  0  0  0  0  0  0  0  0
    2.7912   -2.5547   -2.8087 F   0  0  0  0  0  0  0  0  0  0  0  0
    2.9285    1.5219    0.3017 C   0  0  0  0  0  0  0  0  0  0  0  0
    2.4718    1.9666    1.4869 F   0  0  0  0  0  0  0  0  0  0  0  0
    4.2567    1.6004    0.3643 F   0  0  0  0  0  0  0  0  0  0  0  0
    2.5179    2.4031   -0.6086 F   0  0  0  0  0  0  0  0  0  0  0  0
    2.7931   -0.6596    1.0928 F   0  0  0  0  0  0  0  0  0  0  0  0
  1  2  1  0  0  0  0
  2  3  1  0  0  0  0
  3  4  1  0  0  0  0
  3  5  1  0  0  0  0
  3  6  1  0  0  0  0
  6  7  1  0  0  0  0
  6  8  1  0  0  0  0
  6  9  1  0  0  0  0
  2 10  1  0  0  0  0
 10 11  1  0  0  0  0
 10 12  1  0  0  0  0
 10 13  1  0  0  0  0
  2 14  1  0  0  0  0
M  CHG  1   1  -1
M  END
