21

F          0.96880       -0.62824        0.26244
C          2.29065       -0.30196        0.09448
F          2.43624       -0.10338       -1.23684
F          2.43623        0.89694        0.70643
C          3.16062       -1.41115        0.66545
F          2.84698       -1.60996        1.99066
F          2.84698       -2.60521        0.05724
S          4.90964       -1.02218        0.46522
O          5.09118       -0.90870       -0.98063
O          5.09118        0.22050        1.21299
N          5.47975       -2.33730        1.14220
S          7.06433       -2.37683        1.16254
O          7.72284       -2.56323       -0.12894
O          7.72284       -1.43403        2.06469
C          7.23486       -3.97264        1.98401
F          6.60091       -3.97007        3.20555
F          6.60091       -4.96532        1.27214
C          8.70102       -4.33217        2.16909
F          9.39344       -4.47738        1.01474
F          9.39343       -3.47706        2.95801
F          8.79565       -5.54899        2.79546
