21

C          1.53859       -0.22391        0.44657
C          0.45932       -1.22591        0.03981
C          0.43695       -2.49304        0.90636
C         -0.27814       -2.36985        2.25522
C         -1.77980       -2.16258        2.12506
O          1.24687        0.32176        1.71572
S          2.50825        0.70038        2.67775
O          3.11074       -0.59610        2.97647
O          3.32913        1.57444        1.84404
O          1.87974        1.35787        3.81848
H          1.56153        0.59792       -0.27765
H          2.51970       -0.71291        0.42476
H         -0.52193       -0.74119        0.04480
H          0.66076       -1.52834       -0.99526
H         -0.04990       -3.29236        0.33337
H          1.46683       -2.82773        1.08207
H         -0.10988       -3.29722        2.81637
H          0.15058       -1.56626        2.85982
H         -2.23543       -2.96241        1.53252
H         -2.24672       -2.16987        3.11529
H         -2.01745       -1.20464        1.65456
