25

C          1.06257       -0.04728       -0.06204
C          0.55590        1.36024        0.20736
F          0.99923        2.18018       -0.74136
F         -0.77410        1.36024        0.20736
P          1.16591        1.92664        1.83708
C          0.61664        0.63533        0.66245
C          0.51376        1.23004       -0.73259
F          1.70355        1.69222       -1.10635
F          0.11457        0.29156       -1.58628
F         -0.36685        2.22673       -0.72580
F          1.49725       -0.36135        0.65566
F         -0.57315        0.17316        1.03621
C          2.20398        3.21564        2.61796
C          1.37376        3.99238        3.62683
F          0.92064        3.16169        4.56146
F          2.12821        4.92920        4.19435
F          0.34600        4.56591        3.00742
F          3.23175        2.64211        3.23737
F          2.65710        4.04632        1.68333
F          0.61925        0.91559        3.00693
F          2.80591        1.92664        1.83708
F          0.61924        3.44528        2.12775
F          0.61924       -0.45892       -1.24648
F          0.61924       -0.86721        0.88667
F          2.39257       -0.04728       -0.06204
