17

O          1.18624        0.08354       -0.44021
C          0.39404        0.27276       -1.50881
O          0.85501        0.22823       -2.64590
C         -1.08856        0.36863       -1.29469
C         -1.85666       -0.16972       -2.35294
C         -3.25161       -0.11393       -2.35340
C         -3.91256        0.49427       -1.29684
C         -3.17490        1.03610       -0.24545
C         -1.76171        0.97991       -0.21883
C         -1.07273        1.57718        0.96818
O         -1.58366        2.61173        1.48901
O         -0.03990        0.95936        1.37646
H          0.75122        0.31944        0.43375
H         -1.35395       -0.63635       -3.19925
H         -3.81187       -0.53473       -3.18262
H         -4.99641        0.55624       -1.28485
H         -3.69599        1.52059        0.58141
