 xtb: 6.7.1 (edcfbbe)
          12202401523D

 18 18  0     0  0            999 V2000
    0.9404    0.0162    0.1120 S   0  0  0  0  0  0  0  0  0  0  0  0
    0.5853   -0.7063   -1.1083 O   0  0  0  0  0  0  0  0  0  0  0  0
    0.6208   -0.7037    1.3435 O   0  0  0  0  0  0  0  0  0  0  0  0
    0.5300    1.4184    0.1164 O   0  0  0  0  0  0  0  0  0  0  0  0
    2.7519    0.0455    0.0855 C   0  0  0  0  0  0  0  0  0  0  0  0
    3.4462    1.2343    0.0751 C   0  0  0  0  0  0  0  0  0  0  0  0
    4.8327    1.2251    0.0542 C   0  0  0  0  0  0  0  0  0  0  0  0
    5.5276    0.0230    0.0437 C   0  0  0  0  0  0  0  0  0  0  0  0
    7.0314   -0.0048    0.0190 C   0  0  0  0  0  0  0  0  0  0  0  0
    4.8105   -1.1705    0.0546 C   0  0  0  0  0  0  0  0  0  0  0  0
    3.4272   -1.1568    0.0754 C   0  0  0  0  0  0  0  0  0  0  0  0
    2.8788    2.1525    0.0836 H   0  0  0  0  0  0  0  0  0  0  0  0
    5.3833    2.1582    0.0460 H   0  0  0  0  0  0  0  0  0  0  0  0
    7.4184   -0.5491    0.8808 H   0  0  0  0  0  0  0  0  0  0  0  0
    7.3894   -0.5072   -0.8802 H   0  0  0  0  0  0  0  0  0  0  0  0
    7.4390    1.0040    0.0358 H   0  0  0  0  0  0  0  0  0  0  0  0
    5.3499   -2.1100    0.0465 H   0  0  0  0  0  0  0  0  0  0  0  0
    2.8474   -2.0666    0.0842 H   0  0  0  0  0  0  0  0  0  0  0  0
  1  2  2  0  0  0  0
  1  3  2  0  0  0  0
  1  4  2  0  0  0  0
  1  5  1  0  0  0  0
  5  6  4  0  0  0  0
  6  7  4  0  0  0  0
  7  8  4  0  0  0  0
  8  9  1  0  0  0  0
  8 10  4  0  0  0  0
  5 11  4  0  0  0  0
 10 11  4  0  0  0  0
  6 12  1  0  0  0  0
  7 13  1  0  0  0  0
  9 14  1  0  0  0  0
  9 15  1  0  0  0  0
  9 16  1  0  0  0  0
 10 17  1  0  0  0  0
 11 18  1  0  0  0  0
M  CHG  1   1  -1
M  END
