18

S          0.92473        0.01555        0.11161
O          0.61129       -0.70476       -1.11958
O          0.64534       -0.70178        1.35268
O          0.56167        1.43075        0.11485
C          2.73627        0.03958        0.08661
C          3.43322        1.24876        0.07627
C          4.82980        1.23559        0.05503
C          5.52958        0.01948        0.04496
C          7.02839       -0.00468        0.01812
C          4.81333       -1.18744        0.05530
C          3.41799       -1.17987        0.07640
H          2.88851        2.18897        0.08409
H          5.36266        2.18247        0.04616
H          7.41311       -0.54098        0.89155
H          7.38094       -0.49931       -0.89263
H          7.44728        1.00684        0.03518
H          5.33590       -2.14004        0.04656
H          2.85030       -2.10693        0.08440
