 xtb: 6.7.1 (edcfbbe)
          12202401523D

 24 23  0     0  0            999 V2000
    0.9032   -0.0140   -0.0514 C   0  0  0  0  0  0  0  0  0  0  0  0
    0.6030    1.3150   -0.7653 C   0  0  0  0  0  0  0  0  0  0  0  0
    0.6031   -1.1833   -1.0048 C   0  0  0  0  0  0  0  0  0  0  0  0
    0.3439   -0.1401    1.2639 N   0  0  0  0  0  0  0  0  0  0  0  0
    1.2982   -0.2472    2.3817 C   0  0  0  0  0  0  0  0  0  0  0  0
    0.7914   -0.3544    3.5020 O   0  0  0  0  0  0  0  0  0  0  0  0
    2.4907   -0.2166    2.0646 O   0  0  0  0  0  0  0  0  0  0  0  0
   -1.0503   -0.1724    1.6012 C   0  0  0  0  0  0  0  0  0  0  0  0
   -1.8284    1.1179    1.2917 C   0  0  0  0  0  0  0  0  0  0  0  0
   -1.8285   -1.3804    1.0521 C   0  0  0  0  0  0  0  0  0  0  0  0
    1.9840   -0.0345    0.1628 H   0  0  0  0  0  0  0  0  0  0  0  0
    1.2955    1.4468   -1.5972 H   0  0  0  0  0  0  0  0  0  0  0  0
   -0.4100    1.3389   -1.1635 H   0  0  0  0  0  0  0  0  0  0  0  0
    0.7307    2.1439   -0.0745 H   0  0  0  0  0  0  0  0  0  0  0  0
    0.7309   -2.1283   -0.4840 H   0  0  0  0  0  0  0  0  0  0  0  0
   -0.4099   -1.1312   -1.4002 H   0  0  0  0  0  0  0  0  0  0  0  0
    1.2956   -1.1547   -1.8465 H   0  0  0  0  0  0  0  0  0  0  0  0
   -1.0123   -0.2775    2.6975 H   0  0  0  0  0  0  0  0  0  0  0  0
   -2.0585    1.2054    0.2311 H   0  0  0  0  0  0  0  0  0  0  0  0
   -2.7697    1.1173    1.8420 H   0  0  0  0  0  0  0  0  0  0  0  0
   -1.2483    1.9834    1.5998 H   0  0  0  0  0  0  0  0  0  0  0  0
   -1.2485   -2.2887    1.1903 H   0  0  0  0  0  0  0  0  0  0  0  0
   -2.7697   -1.4843    1.5926 H   0  0  0  0  0  0  0  0  0  0  0  0
   -2.0585   -1.2647   -0.0057 H   0  0  0  0  0  0  0  0  0  0  0  0
  1  2  1  0  0  0  0
  1  3  1  0  0  0  0
  1  4  1  0  0  0  0
  4  5  1  0  0  0  0
  5  6  4  0  0  0  0
  5  7  4  0  0  0  0
  4  8  1  0  0  0  0
  8  9  1  0  0  0  0
  8 10  1  0  0  0  0
  1 11  1  0  0  0  0
  2 12  1  0  0  0  0
  2 13  1  0  0  0  0
  2 14  1  0  0  0  0
  3 15  1  0  0  0  0
  3 16  1  0  0  0  0
  3 17  1  0  0  0  0
  8 18  1  0  0  0  0
  9 19  1  0  0  0  0
  9 20  1  0  0  0  0
  9 21  1  0  0  0  0
 10 22  1  0  0  0  0
 10 23  1  0  0  0  0
 10 24  1  0  0  0  0
M  CHG  1   1  -1
M  END
