 xtb: 6.7.1 (edcfbbe)
          12202401523D

 14 14  0     0  0            999 V2000
    0.9993   -0.0163    0.0826 C   0  0  0  0  0  0  0  0  0  0  0  0
    0.1712    0.7680   -0.9869 C   0  0  0  0  0  0  0  0  0  0  0  0
   -0.9588    1.4851   -0.6180 C   0  0  0  0  0  0  0  0  0  0  0  0
   -1.6932    2.1805   -1.5615 C   0  0  0  0  0  0  0  0  0  0  0  0
   -1.3031    2.1654   -2.8913 C   0  0  0  0  0  0  0  0  0  0  0  0
   -0.1766    1.4524   -3.2698 C   0  0  0  0  0  0  0  0  0  0  0  0
    0.5536    0.7593   -2.3213 C   0  0  0  0  0  0  0  0  0  0  0  0
    0.5677    0.0520    1.2428 O   0  0  0  0  0  0  0  0  0  0  0  0
    1.9910   -0.6200   -0.3522 O   0  0  0  0  0  0  0  0  0  0  0  0
   -1.2430    1.4813    0.4256 H   0  0  0  0  0  0  0  0  0  0  0  0
   -2.5751    2.7391   -1.2668 H   0  0  0  0  0  0  0  0  0  0  0  0
   -1.8773    2.7098   -3.6330 H   0  0  0  0  0  0  0  0  0  0  0  0
    0.1274    1.4415   -4.3110 H   0  0  0  0  0  0  0  0  0  0  0  0
    1.4363    0.1958   -2.5918 H   0  0  0  0  0  0  0  0  0  0  0  0
  1  2  1  0  0  0  0
  2  3  4  0  0  0  0
  3  4  4  0  0  0  0
  4  5  4  0  0  0  0
  5  6  4  0  0  0  0
  2  7  4  0  0  0  0
  6  7  4  0  0  0  0
  1  8  2  0  0  0  0
  1  9  2  0  0  0  0
  3 10  1  0  0  0  0
  4 11  1  0  0  0  0
  5 12  1  0  0  0  0
  6 13  1  0  0  0  0
  7 14  1  0  0  0  0
M  CHG  1   1  -1
M  END
