 xtb: 6.7.1 (edcfbbe)
          12202401523D

  8  7  0     0  0            999 V2000
    1.0416   -0.0924   -0.1432 F   0  0  0  0  0  0  0  0  0  0  0  0
    2.4001   -0.0627   -0.0281 C   0  0  0  0  0  0  0  0  0  0  0  0
    2.7996   -1.2731   -0.5132 F   0  0  0  0  0  0  0  0  0  0  0  0
    2.7939    0.8229   -0.9876 F   0  0  0  0  0  0  0  0  0  0  0  0
    2.9607    0.2888    1.5188 B   0  0  0  0  0  0  0  0  0  0  0  0
    2.4982    1.5393    1.8995 F   0  0  0  0  0  0  0  0  0  0  0  0
    2.4929   -0.6706    2.4037 F   0  0  0  0  0  0  0  0  0  0  0  0
    4.3476    0.2844    1.5136 F   0  0  0  0  0  0  0  0  0  0  0  0
  1  2  1  0  0  0  0
  2  3  1  0  0  0  0
  2  4  1  0  0  0  0
  2  5  1  0  0  0  0
  5  6  1  0  0  0  0
  5  7  1  0  0  0  0
  5  8  1  0  0  0  0
M  CHG  1   1  -1
M  END
