8

F          1.06681       -0.06470       -0.03675
C          2.39681       -0.06470       -0.03675
F          2.84014       -1.26259       -0.40744
F          2.84014        0.85527       -0.88881
B          2.93014        0.26964        1.43423
F          2.46013        1.53958        1.82722
F          2.46013       -0.70567        2.33754
F          4.34014        0.26964        1.43423
