 xtb: 6.7.1 (edcfbbe)
          12202401523D

  5  4  0     0  0            999 V2000
    1.0681   -0.0311    0.0818 F   0  0  0  0  0  0  0  0  0  0  0  0
    2.4584   -0.0311    0.0818 B   0  0  0  0  0  0  0  0  0  0  0  0
    2.9219   -0.8814    1.0793 F   0  0  0  0  0  0  0  0  0  0  0  0
    2.9219   -0.4697   -1.1534 F   0  0  0  0  0  0  0  0  0  0  0  0
    2.9219    1.2580    0.3195 F   0  0  0  0  0  0  0  0  0  0  0  0
  1  2  1  0  0  0  0
  2  3  1  0  0  0  0
  2  4  1  0  0  0  0
  2  5  1  0  0  0  0
M  CHG  1   1  -1
M  END
