 xtb: 6.7.1 (edcfbbe)
          12202401523D

 24 24  0     0  0            999 V2000
    2.3956    0.1133   -0.7651 Cl  0  0  0  0  0  0  0  0  0  0  0  0
    0.7262   -0.1701   -0.3642 C   0  0  0  0  0  0  0  0  0  0  0  0
   -0.1081    0.9029   -0.1173 C   0  0  0  0  0  0  0  0  0  0  0  0
   -1.4502    0.7335    0.2000 C   0  0  0  0  0  0  0  0  0  0  0  0
   -1.9687   -0.5791    0.2349 C   0  0  0  0  0  0  0  0  0  0  0  0
   -3.2172   -0.9925    0.5064 O   0  0  0  0  0  0  0  0  0  0  0  0
   -4.4161   -0.2920    0.1456 C   0  0  0  0  0  0  0  0  0  0  0  0
   -4.9030    0.8879    1.1421 C   0  0  0  0  0  0  0  0  0  0  0  0
   -5.6721    1.6939    0.6150 O   0  0  0  0  0  0  0  0  0  0  0  0
   -4.4952    0.8047    2.2998 O   0  0  0  0  0  0  0  0  0  0  0  0
   -4.4305    0.1137   -1.3239 C   0  0  0  0  0  0  0  0  0  0  0  0
   -1.0838   -1.6463    0.0117 C   0  0  0  0  0  0  0  0  0  0  0  0
    0.2507   -1.4641   -0.2783 C   0  0  0  0  0  0  0  0  0  0  0  0
   -2.2367    1.9489    0.5722 C   0  0  0  0  0  0  0  0  0  0  0  0
    0.2978    1.9040   -0.1538 H   0  0  0  0  0  0  0  0  0  0  0  0
   -5.1794   -1.0671    0.3086 H   0  0  0  0  0  0  0  0  0  0  0  0
   -4.6481   -0.7342   -1.9753 H   0  0  0  0  0  0  0  0  0  0  0  0
   -5.2027    0.8718   -1.4437 H   0  0  0  0  0  0  0  0  0  0  0  0
   -3.4702    0.5318   -1.6221 H   0  0  0  0  0  0  0  0  0  0  0  0
   -1.4910   -2.6442    0.0780 H   0  0  0  0  0  0  0  0  0  0  0  0
    0.9033   -2.3071   -0.4475 H   0  0  0  0  0  0  0  0  0  0  0  0
   -2.6761    1.8080    1.5592 H   0  0  0  0  0  0  0  0  0  0  0  0
   -1.5925    2.8264    0.5888 H   0  0  0  0  0  0  0  0  0  0  0  0
   -3.0644    2.1381   -0.1076 H   0  0  0  0  0  0  0  0  0  0  0  0
  1  2  1  0  0  0  0
  2  3  4  0  0  0  0
  3  4  4  0  0  0  0
  4  5  4  0  0  0  0
  5  6  1  0  0  0  0
  6  7  1  0  0  0  0
  7  8  1  0  0  0  0
  8  9  2  0  0  0  0
  8 10  2  0  0  0  0
  7 11  1  0  0  0  0
  5 12  4  0  0  0  0
  2 13  4  0  0  0  0
 12 13  4  0  0  0  0
  4 14  1  0  0  0  0
  3 15  1  0  0  0  0
  7 16  1  0  0  0  0
 11 17  1  0  0  0  0
 11 18  1  0  0  0  0
 11 19  1  0  0  0  0
 12 20  1  0  0  0  0
 13 21  1  0  0  0  0
 14 22  1  0  0  0  0
 14 23  1  0  0  0  0
 14 24  1  0  0  0  0
M  CHG  1   1  -1
M  END
