94

C          0.78386        1.21124        0.10803
C          0.77104       -0.30665        0.16730
C          1.48993       -0.87713        1.39447
C          0.94849       -0.43406        2.76336
C         -0.52212       -0.79753        2.97018
C         -0.87896       -1.54675        4.25817
O          0.09081       -2.42113        4.82058
C          0.54825       -3.53352        4.05032
C         -0.53607       -4.33311        3.33225
O         -0.73606       -3.74099        2.05214
C         -2.01228       -3.96599        1.46389
C         -2.29618       -5.42967        1.14785
O         -1.58834       -5.88686        0.00416
C         -0.22279       -6.24912        0.19459
C          0.76362       -5.15449       -0.23034
O          0.89169       -4.96825       -1.63605
C         -0.23482       -4.37809       -2.27841
C         -1.28413       -5.36493       -2.81319
O         -0.92248       -6.73260       -2.96478
C          0.38356       -7.05560       -3.43084
C          0.97558       -6.21790       -4.57897
O          0.04356       -5.37847       -5.25455
C         -0.65092       -5.93380       -6.36526
C         -1.33042       -7.29450       -6.15672
O         -0.44023       -8.34073       -5.80494
C          0.24095       -9.10816       -6.78413
C          1.08483       -8.34373       -7.79968
O          0.62261       -8.33191       -9.13834
C         -0.66096       -7.82856       -9.47671
C         -1.78713       -8.86288       -9.38067
O         -1.71906       -9.92814      -10.31261
C         -0.52426      -10.71585      -10.30701
C          0.51664      -10.25734      -11.34779
O          0.00101       -9.49005      -12.44247
C         -1.00530      -10.13547      -13.22971
C         -0.55612      -11.45281      -13.85572
O         -0.63190      -12.46393      -12.86936
S          0.35199      -13.75540      -12.94064
O          1.55853      -13.27991      -13.60312
O          0.53910      -14.09127      -11.53018
O         -0.42768      -14.72259      -13.70695
H          0.19185        1.64705        0.91806
H          0.35294        1.55361       -0.83827
H          1.80541        1.59763        0.17562
H         -0.26396       -0.66257        0.12211
H          1.26505       -0.69671       -0.73125
H          1.44999       -1.97126        1.33126
H          2.55169       -0.60808        1.33925
H          1.58098       -0.87266        3.54167
H          1.06944        0.65009        2.87010
H         -1.12039        0.12351        2.94525
H         -0.89467       -1.37551        2.12285
H         -1.08305       -0.80121        5.03473
H         -1.82523       -2.08436        4.12435
H          1.31640       -3.19123        3.35091
H          1.04670       -4.19550        4.76678
H         -0.17571       -5.35324        3.17078
H         -1.46517       -4.36199        3.90848
H         -2.78007       -3.55277        2.12531
H         -2.02804       -3.38276        0.53562
H         -2.11412       -6.09427        1.99663
H         -3.35761       -5.51117        0.89044
H         -0.04567       -6.54527        1.23235
H         -0.05231       -7.13866       -0.42042
H          0.55386       -4.18309        0.21159
H          1.75890       -5.45677        0.11354
H         -0.70464       -3.61686       -1.64499
H          0.16832       -3.82315       -3.13305
H         -2.16444       -5.34778       -2.16440
H         -1.69859       -4.99186       -3.75657
H          1.08298       -7.07952       -2.58900
H          0.35264       -8.11235       -3.71145
H          1.72151       -5.54465       -4.14206
H          1.54919       -6.83878       -5.27449
H         -1.43172       -5.20761       -6.61937
H          0.03410       -5.92279       -7.20975
H         -2.02630       -7.19340       -5.31697
H         -1.94311       -7.57137       -7.01419
H          0.93974       -9.70995       -6.18961
H         -0.43551       -9.83697       -7.22480
H          1.34769       -7.33518       -7.48897
H          2.04654       -8.86735       -7.86374
H         -0.89156       -6.93374       -8.89888
H         -0.59398       -7.50681      -10.52159
H         -1.89947       -9.29653       -8.38927
H         -2.73367       -8.34921       -9.58310
H         -0.08259      -10.79114       -9.30681
H         -0.84021      -11.73424      -10.54549
H          1.26876       -9.62363      -10.87282
H          1.10765      -11.10278      -11.71151
H         -1.91804      -10.26525      -12.64195
H         -1.24393       -9.42588      -14.02855
H         -1.23784      -11.72496      -14.66607
H          0.45379      -11.32808      -14.25425
