15

I         -1.34497        0.32339        0.01151
C          0.72687       -0.00342        0.01650
C          1.40788       -1.22313        0.02397
C          2.82188       -1.22724        0.01379
C          3.55301       -0.04145       -0.00238
C          2.88009        1.17148       -0.00721
C          1.48265        1.18918        0.00214
S          0.68322       -2.88955        0.04752
O          1.17461       -3.43826       -1.21513
O          1.29152       -3.45736        1.24984
O         -0.75993       -2.72303        0.12132
H          3.34428       -2.18409        0.01760
H          4.63806       -0.07505       -0.01104
H          3.43578        2.10430       -0.01951
H          0.98566        2.15699       -0.00360
