 xtb: 6.7.1 (edcfbbe)
          12202401523D

 14 13  0     0  0            999 V2000
    1.0445   -0.5978   -0.2299 F   0  0  0  0  0  0  0  0  0  0  0  0
    2.2304   -0.0765    0.1400 C   0  0  0  0  0  0  0  0  0  0  0  0
    2.8370    0.2604   -1.0118 F   0  0  0  0  0  0  0  0  0  0  0  0
    1.9233    1.0766    0.7730 F   0  0  0  0  0  0  0  0  0  0  0  0
    2.9964   -1.0743    1.0577 C   0  0  0  0  0  0  0  0  0  0  0  0
    2.4913   -2.1973    1.1235 O   0  0  0  0  0  0  0  0  0  0  0  0
    4.0690   -0.6406    1.8444 C   0  0  0  0  0  0  0  0  0  0  0  0
    4.9505    0.4457    1.8535 C   0  0  0  0  0  0  0  0  0  0  0  0
    5.7126    0.7192    2.7841 O   0  0  0  0  0  0  0  0  0  0  0  0
    5.1598    1.3089    0.5747 C   0  0  0  0  0  0  0  0  0  0  0  0
    5.3518    0.5558   -0.5302 F   0  0  0  0  0  0  0  0  0  0  0  0
    4.1866    2.1891    0.2819 F   0  0  0  0  0  0  0  0  0  0  0  0
    6.2779    2.0514    0.6898 F   0  0  0  0  0  0  0  0  0  0  0  0
    4.2738   -1.3289    2.6571 H   0  0  0  0  0  0  0  0  0  0  0  0
  1  2  1  0  0  0  0
  2  3  1  0  0  0  0
  2  4  1  0  0  0  0
  2  5  1  0  0  0  0
  5  6  2  0  0  0  0
  5  7  4  0  0  0  0
  7  8  4  0  0  0  0
  8  9  2  0  0  0  0
  8 10  1  0  0  0  0
 10 11  1  0  0  0  0
 10 12  1  0  0  0  0
 10 13  1  0  0  0  0
  7 14  1  0  0  0  0
M  CHG  1   1  -1
M  END
