21

C          1.16821       -0.44076       -0.26735
C          0.18984        0.26745       -1.21451
C          0.84399        0.73283       -2.51648
C          1.13137       -0.42016       -3.46896
N          0.57663       -1.57598        0.42583
C         -0.33504       -1.34130        1.37980
O         -1.04068       -2.32535        1.74254
O         -0.40168       -0.15946        1.82344
C          0.50864       -2.84122       -0.27733
H          1.56841        0.26879        0.46804
H          2.04659       -0.81363       -0.80581
H         -0.66771       -0.37334       -1.45304
H         -0.21916        1.14413       -0.69658
H          0.16600        1.43304       -3.01869
H          1.76931        1.28002       -2.30342
H          0.21519       -0.97400       -3.69895
H          1.54047       -0.03936       -4.40992
H          1.85720       -1.12216       -3.04882
H         -0.38125       -2.86233       -0.91379
H          1.39778       -2.95954       -0.90508
H          0.49448       -3.67725        0.42860
