 xtb: 6.7.1 (edcfbbe)
          12202401523D

 21 20  0     0  0            999 V2000
    0.8874   -0.7731   -0.6309 C   0  0  0  0  0  0  0  0  0  0  0  0
   -0.0777   -0.3967   -1.7662 C   0  0  0  0  0  0  0  0  0  0  0  0
    0.4426    0.7326   -2.6541 C   0  0  0  0  0  0  0  0  0  0  0  0
    1.6808    0.3411   -3.4532 C   0  0  0  0  0  0  0  0  0  0  0  0
    0.2563   -1.5521    0.3891 N   0  0  0  0  0  0  0  0  0  0  0  0
    0.4273   -1.1474    1.7926 C   0  0  0  0  0  0  0  0  0  0  0  0
    0.0648   -1.9848    2.6223 O   0  0  0  0  0  0  0  0  0  0  0  0
    0.8841   -0.0129    1.9541 O   0  0  0  0  0  0  0  0  0  0  0  0
    0.0168   -2.9317    0.1013 C   0  0  0  0  0  0  0  0  0  0  0  0
    1.2356    0.1360   -0.1280 H   0  0  0  0  0  0  0  0  0  0  0  0
    1.7607   -1.3081   -1.0526 H   0  0  0  0  0  0  0  0  0  0  0  0
   -0.2850   -1.2769   -2.3818 H   0  0  0  0  0  0  0  0  0  0  0  0
   -1.0165   -0.0829   -1.3056 H   0  0  0  0  0  0  0  0  0  0  0  0
   -0.3467    1.0342   -3.3513 H   0  0  0  0  0  0  0  0  0  0  0  0
    0.6781    1.5944   -2.0257 H   0  0  0  0  0  0  0  0  0  0  0  0
    1.4755   -0.5323   -4.0706 H   0  0  0  0  0  0  0  0  0  0  0  0
    1.9925    1.1571   -4.1046 H   0  0  0  0  0  0  0  0  0  0  0  0
    2.5027    0.1026   -2.7843 H   0  0  0  0  0  0  0  0  0  0  0  0
   -0.8247   -3.0621   -0.5952 H   0  0  0  0  0  0  0  0  0  0  0  0
    0.9022   -3.4274   -0.3371 H   0  0  0  0  0  0  0  0  0  0  0  0
   -0.2279   -3.4091    1.0514 H   0  0  0  0  0  0  0  0  0  0  0  0
  1  2  1  0  0  0  0
  2  3  1  0  0  0  0
  3  4  1  0  0  0  0
  1  5  1  0  0  0  0
  5  6  1  0  0  0  0
  6  7  4  0  0  0  0
  6  8  4  0  0  0  0
  5  9  1  0  0  0  0
  1 10  1  0  0  0  0
  1 11  1  0  0  0  0
  2 12  1  0  0  0  0
  2 13  1  0  0  0  0
  3 14  1  0  0  0  0
  3 15  1  0  0  0  0
  4 16  1  0  0  0  0
  4 17  1  0  0  0  0
  4 18  1  0  0  0  0
  9 19  1  0  0  0  0
  9 20  1  0  0  0  0
  9 21  1  0  0  0  0
M  CHG  1   1  -1
M  END
