7

F          1.31926       -0.08455        0.44078
P          2.77001        0.34289        0.06437
F          2.08994        1.61058        0.66398
F          4.08845        0.79145        0.76407
F          2.65432       -0.57996       -1.18625
F          3.18949        1.21724       -1.15573
F          3.27861       -0.89743        0.85936
