 xtb: 6.7.1 (edcfbbe)
          12202401523D

  7  6  0     0  0            999 V2000
    1.1940   -0.0241   -0.1222 F   0  0  0  0  0  0  0  0  0  0  0  0
    2.7700    0.3429    0.0644 P   0  0  0  0  0  0  0  0  0  0  0  0
    2.3745    1.4873    1.1540 F   0  0  0  0  0  0  0  0  0  0  0  0
    4.3460    0.7099    0.2510 F   0  0  0  0  0  0  0  0  0  0  0  0
    3.1655   -0.8015   -1.0253 F   0  0  0  0  0  0  0  0  0  0  0  0
    2.6556    1.4424   -1.1320 F   0  0  0  0  0  0  0  0  0  0  0  0
    2.8844   -0.7567    1.2607 F   0  0  0  0  0  0  0  0  0  0  0  0
  1  2  1  0  0  0  0
  2  3  1  0  0  0  0
  2  4  1  0  0  0  0
  2  5  1  0  0  0  0
  2  6  1  0  0  0  0
  2  7  1  0  0  0  0
M  CHG  1   1  -1
M  END
