15

F          1.17504        0.35203        0.49384
C          2.41575        0.00076        0.06769
C          2.63970       -1.50114        0.22007
O          2.21058       -2.30071       -0.86825
S          0.61088       -2.52786       -1.07658
O          0.13097       -2.87501        0.25425
O          0.17788       -1.22604       -1.57020
O          0.55414       -3.60285       -2.05724
C          2.69652        0.53200       -1.33201
F          2.63457        1.89817       -1.33970
F          3.97687        0.23077       -1.70273
F          3.27244        0.61822        0.95184
H          3.71773       -1.67709        0.31424
H          2.20220       -1.85761        1.15925
H          2.02125        0.17048       -2.10539
