 xtb: 6.7.1 (edcfbbe)
          12202401523D

 15 14  0     0  0            999 V2000
    1.5145    0.6119    0.7540 F   0  0  0  0  0  0  0  0  0  0  0  0
    2.5681    0.0258    0.1281 C   0  0  0  0  0  0  0  0  0  0  0  0
    2.5607   -1.5019    0.3128 C   0  0  0  0  0  0  0  0  0  0  0  0
    2.4124   -2.1872   -0.8701 O   0  0  0  0  0  0  0  0  0  0  0  0
    0.7693   -2.4705   -1.1606 S   0  0  0  0  0  0  0  0  0  0  0  0
    0.2627   -2.9363    0.1112 O   0  0  0  0  0  0  0  0  0  0  0  0
    0.2590   -1.1680   -1.5538 O   0  0  0  0  0  0  0  0  0  0  0  0
    0.7889   -3.4453   -2.2158 O   0  0  0  0  0  0  0  0  0  0  0  0
    2.5455    0.4408   -1.3481 C   0  0  0  0  0  0  0  0  0  0  0  0
    2.5159    1.7965   -1.4585 F   0  0  0  0  0  0  0  0  0  0  0  0
    3.6848    0.0588   -1.9671 F   0  0  0  0  0  0  0  0  0  0  0  0
    3.6599    0.5713    0.7586 F   0  0  0  0  0  0  0  0  0  0  0  0
    3.5150   -1.7876    0.7733 H   0  0  0  0  0  0  0  0  0  0  0  0
    1.7234   -1.7665    0.9738 H   0  0  0  0  0  0  0  0  0  0  0  0
    1.6564   -0.0075   -1.8289 H   0  0  0  0  0  0  0  0  0  0  0  0
  1  2  1  0  0  0  0
  2  3  1  0  0  0  0
  3  4  1  0  0  0  0
  4  5  1  0  0  0  0
  5  6  2  0  0  0  0
  5  7  2  0  0  0  0
  5  8  2  0  0  0  0
  2  9  1  0  0  0  0
  9 10  1  0  0  0  0
  9 11  1  0  0  0  0
  2 12  1  0  0  0  0
  3 13  1  0  0  0  0
  3 14  1  0  0  0  0
  9 15  1  0  0  0  0
M  CHG  1   1  -1
M  END
