31

C         -0.91369       -0.14664       -1.00182
C         -1.11442        0.65633        0.28292
C         -0.91881        2.17152        0.16061
C         -1.87568        2.83521       -0.81805
O          0.45620       -0.27083       -1.33571
P          1.03287        1.00333       -2.35398
O          2.12471        1.20509       -1.28631
O          1.52941       -0.15523       -3.42877
C          2.04090       -1.42694       -3.07429
C          3.36358       -1.41212       -2.30679
C          3.26671       -1.76938       -0.81626
C          2.69143       -3.15165       -0.54037
O          1.60953        2.27749       -3.37225
H         -1.47954        0.25970       -1.84503
H         -1.28470       -1.16404       -0.83569
H         -2.12774        0.46996        0.65661
H         -0.41529        0.28895        1.04478
H         -1.07814        2.61643        1.15134
H          0.11073        2.41044       -0.11491
H         -2.91498        2.59314       -0.57772
H         -1.76274        3.92356       -0.77366
H         -1.67625        2.52687       -1.84858
H          1.26370       -2.03646       -2.60771
H          2.23624       -1.92041       -4.03429
H          4.03112       -2.15279       -2.76646
H          3.85785       -0.44057       -2.41579
H          4.27760       -1.72859       -0.39225
H          2.67837       -1.02757       -0.27067
H          2.78327       -3.38829        0.52495
H          1.62855       -3.20560       -0.79237
H          3.22319       -3.92257       -1.10592
