15

C          1.30797        0.14819       -0.30230
F          0.46887       -0.58429        0.48502
F          0.96712        1.45854       -0.11143
F          0.96712       -0.13662       -1.59548
S          3.07360       -0.16502        0.03438
O          3.25415        0.21443        1.43792
O          3.25415       -1.59227       -0.24294
N          3.64345        0.84147       -1.04747
S          5.22654        0.87193       -1.08021
O          5.89150        1.48469        0.07254
O          5.89150       -0.32200       -1.60833
C          5.38154        2.11022       -2.41120
F          4.78540        1.70246       -3.57223
F          4.78540        3.29761       -2.08816
F          6.67509        2.40493       -2.72797
