11

C          1.03487       -0.05918        0.04605
C          0.52235        0.28798       -1.30876
C         -0.25218       -0.51755       -2.05299
C         -0.77289       -0.14564       -3.44828
O         -1.48605       -1.04526       -3.97882
O         -0.43604        0.98697       -3.89101
H          0.70747       -1.05200        0.37053
H          0.68050        0.67272        0.77823
H          2.12900       -0.04408        0.04659
H          0.79969        1.26073       -1.71271
H         -0.55185       -1.49534       -1.68833
