7

N          1.01942       -0.45791        0.00214
N          0.76987        0.85890        0.00210
N         -0.54820        1.01177       -0.00015
C         -1.12404       -0.23103       -0.00195
C         -0.13198       -1.18288       -0.00085
H          1.98378       -0.77051        0.00429
H         -0.14867       -2.26111       -0.00177
