 xtb: 6.7.1 (edcfbbe)
          12202401523D

 17 16  0     0  0            999 V2000
    1.1691    0.0295   -0.0235 C   0  0  0  0  0  0  0  0  0  0  0  0
    0.5379   -0.2546    1.3444 C   0  0  0  0  0  0  0  0  0  0  0  0
    1.0551    0.6319    2.4791 C   0  0  0  0  0  0  0  0  0  0  0  0
    0.5241    2.0567    2.4097 C   0  0  0  0  0  0  0  0  0  0  0  0
    0.5469    1.2780   -0.9107 B   0  0  0  0  0  0  0  0  0  0  0  0
    0.6380    0.9786   -2.2908 F   0  0  0  0  0  0  0  0  0  0  0  0
   -0.8113    1.5271   -0.6297 F   0  0  0  0  0  0  0  0  0  0  0  0
    1.2476    2.4917   -0.7189 F   0  0  0  0  0  0  0  0  0  0  0  0
    1.0507   -0.8707   -0.6359 H   0  0  0  0  0  0  0  0  0  0  0  0
    2.2466    0.1755    0.1020 H   0  0  0  0  0  0  0  0  0  0  0  0
   -0.5449   -0.1340    1.2645 H   0  0  0  0  0  0  0  0  0  0  0  0
    0.7346   -1.3002    1.6232 H   0  0  0  0  0  0  0  0  0  0  0  0
    0.7638    0.1857    3.4399 H   0  0  0  0  0  0  0  0  0  0  0  0
    2.1486    0.6513    2.4460 H   0  0  0  0  0  0  0  0  0  0  0  0
   -0.5610    2.0578    2.4869 H   0  0  0  0  0  0  0  0  0  0  0  0
    0.9346    2.6640    3.2177 H   0  0  0  0  0  0  0  0  0  0  0  0
    0.7915    2.5038    1.4601 H   0  0  0  0  0  0  0  0  0  0  0  0
  1  2  1  0  0  0  0
  2  3  1  0  0  0  0
  3  4  1  0  0  0  0
  1  5  1  0  0  0  0
  5  6  1  0  0  0  0
  5  7  1  0  0  0  0
  5  8  1  0  0  0  0
  1  9  1  0  0  0  0
  1 10  1  0  0  0  0
  2 11  1  0  0  0  0
  2 12  1  0  0  0  0
  3 13  1  0  0  0  0
  3 14  1  0  0  0  0
  4 15  1  0  0  0  0
  4 16  1  0  0  0  0
  4 17  1  0  0  0  0
M  CHG  1   1  -1
M  END
