17

C          1.07442       -0.06660       -0.00505
C          0.56775       -0.37820        1.39373
C          1.07441        0.67738        2.36298
C          0.56774        2.04456        1.93345
B          0.54109        1.37254       -0.45719
F          1.01109        1.66159       -1.75475
F         -0.86891        1.37253       -0.45720
F          1.01108        2.35172        0.44192
H          0.71776       -0.80968       -0.68735
H          2.14442       -0.06660       -0.00505
H         -0.50225       -0.37820        1.39373
H          0.92442       -1.34063        1.69610
H          0.71774        0.45803        3.34765
H          2.14441        0.67738        2.36298
H         -0.50226        2.04456        1.93345
H          0.92441        2.78764        2.61575
H          0.92441        2.26391        0.94878
