7

O          1.20333        0.40891       -0.32790
C          2.39552        0.14190        0.00352
O          3.07946        0.60582        0.96241
C          3.13910       -0.81293       -0.93125
Cl         2.92464       -2.50420       -0.40511
H          2.76183       -0.72632       -1.95454
H          4.21108       -0.59437       -0.93790
