 xtb: 6.7.1 (edcfbbe)
          12202401523D

  7  6  0     0  0            999 V2000
    1.2108    0.4228   -0.3021 O   0  0  0  0  0  0  0  0  0  0  0  0
    2.3712    0.1890    0.0317 C   0  0  0  0  0  0  0  0  0  0  0  0
    3.0521    0.6175    0.9621 O   0  0  0  0  0  0  0  0  0  0  0  0
    3.1537   -0.8243   -0.9504 C   0  0  0  0  0  0  0  0  0  0  0  0
    2.9442   -2.5031   -0.4349 Cl  0  0  0  0  0  0  0  0  0  0  0  0
    2.7568   -0.7586   -1.9647 H   0  0  0  0  0  0  0  0  0  0  0  0
    4.2262   -0.6245   -0.9324 H   0  0  0  0  0  0  0  0  0  0  0  0
  1  2  2  0  0  0  0
  2  3  2  0  0  0  0
  2  4  1  0  0  0  0
  4  5  1  0  0  0  0
  4  6  1  0  0  0  0
  4  7  1  0  0  0  0
M  CHG  1   1  -1
M  END
