 xtb: 6.7.1 (edcfbbe)
          12202401523D

  8  7  0     0  0            999 V2000
    0.9187    0.0184    0.0543 O   0  0  0  0  0  0  0  0  0  0  0  0
    0.6417    0.9124    1.1010 C   0  0  0  0  0  0  0  0  0  0  0  0
    1.2085    0.2831    2.4385 C   0  0  0  0  0  0  0  0  0  0  0  0
    1.0635    0.9276    3.4786 O   0  0  0  0  0  0  0  0  0  0  0  0
    1.7470   -0.8268    2.2501 O   0  0  0  0  0  0  0  0  0  0  0  0
    1.3818   -0.7034    0.5646 H   0  0  0  0  0  0  0  0  0  0  0  0
    1.1225    1.8843    0.9209 H   0  0  0  0  0  0  0  0  0  0  0  0
   -0.4416    1.0706    1.2017 H   0  0  0  0  0  0  0  0  0  0  0  0
  1  2  1  0  0  0  0
  2  3  1  0  0  0  0
  3  4  2  0  0  0  0
  3  5  4  0  0  0  0
  1  6  1  0  0  0  0
  2  7  1  0  0  0  0
  2  8  1  0  0  0  0
M  CHG  1   1  -1
M  END
