 xtb: 6.7.1 (edcfbbe)
          12202401523D

  5  4  0     0  0            999 V2000
    1.0214   -0.0459    0.0861 Al  0  0  0  0  0  0  0  0  0  0  0  0
    0.3170    0.3140   -1.8742 Cl  0  0  0  0  0  0  0  0  0  0  0  0
    0.3169   -1.9230    0.7560 Cl  0  0  0  0  0  0  0  0  0  0  0  0
    0.3164    1.4722    1.3775 Cl  0  0  0  0  0  0  0  0  0  0  0  0
    3.1354   -0.0460    0.0860 Cl  0  0  0  0  0  0  0  0  0  0  0  0
  1  2  1  0  0  0  0
  1  3  1  0  0  0  0
  1  4  1  0  0  0  0
  1  5  1  0  0  0  0
M  CHG  1   1  -1
M  END
