 xtb: 6.7.1 (edcfbbe)
          12202401523D

 28 28  0     0  0            999 V2000
    0.8970   -0.1782    0.0209 C   0  0  0  0  0  0  0  0  0  0  0  0
   -0.0969   -1.3441   -0.0147 C   0  0  0  0  0  0  0  0  0  0  0  0
    0.7694    0.5813    1.3417 C   0  0  0  0  0  0  0  0  0  0  0  0
    0.6484    0.7671   -1.1569 C   0  0  0  0  0  0  0  0  0  0  0  0
    2.2338   -0.6729   -0.1987 O   0  0  0  0  0  0  0  0  0  0  0  0
    2.9853   -1.0440    0.8851 C   0  0  0  0  0  0  0  0  0  0  0  0
    3.8832   -0.1491    1.4647 C   0  0  0  0  0  0  0  0  0  0  0  0
    4.6944   -0.5148    2.5318 C   0  0  0  0  0  0  0  0  0  0  0  0
    4.6638   -1.7851    3.0900 C   0  0  0  0  0  0  0  0  0  0  0  0
    3.7796   -2.6748    2.4939 C   0  0  0  0  0  0  0  0  0  0  0  0
    2.9664   -2.3300    1.4204 C   0  0  0  0  0  0  0  0  0  0  0  0
    2.1373   -3.2583    0.8846 F   0  0  0  0  0  0  0  0  0  0  0  0
    3.6697   -3.9337    2.9476 F   0  0  0  0  0  0  0  0  0  0  0  0
    5.5639   -2.2735    4.4256 B   0  0  0  0  0  0  0  0  0  0  0  0
    4.6760   -2.5665    5.4604 F   0  0  0  0  0  0  0  0  0  0  0  0
    6.2971   -3.4086    4.0975 F   0  0  0  0  0  0  0  0  0  0  0  0
    6.4356   -1.2864    4.8509 F   0  0  0  0  0  0  0  0  0  0  0  0
    5.5149    0.4348    3.0108 F   0  0  0  0  0  0  0  0  0  0  0  0
    3.9495    1.1108    0.9673 F   0  0  0  0  0  0  0  0  0  0  0  0
    0.0323   -1.9877    0.8507 H   0  0  0  0  0  0  0  0  0  0  0  0
   -1.1164   -0.9655   -0.0187 H   0  0  0  0  0  0  0  0  0  0  0  0
    0.0668   -1.9384   -0.9101 H   0  0  0  0  0  0  0  0  0  0  0  0
    1.4818    1.4015    1.3818 H   0  0  0  0  0  0  0  0  0  0  0  0
   -0.2353    0.9883    1.4279 H   0  0  0  0  0  0  0  0  0  0  0  0
    0.9500   -0.0795    2.1877 H   0  0  0  0  0  0  0  0  0  0  0  0
    1.3708    1.5787   -1.1312 H   0  0  0  0  0  0  0  0  0  0  0  0
    0.7716    0.2262   -2.0912 H   0  0  0  0  0  0  0  0  0  0  0  0
   -0.3564    1.1784   -1.1090 H   0  0  0  0  0  0  0  0  0  0  0  0
  1  2  1  0  0  0  0
  1  3  1  0  0  0  0
  1  4  1  0  0  0  0
  1  5  1  0  0  0  0
  5  6  1  0  0  0  0
  6  7  4  0  0  0  0
  7  8  4  0  0  0  0
  8  9  4  0  0  0  0
  9 10  4  0  0  0  0
  6 11  4  0  0  0  0
 10 11  4  0  0  0  0
 11 12  1  0  0  0  0
 10 13  1  0  0  0  0
  9 14  1  0  0  0  0
 14 15  1  0  0  0  0
 14 16  1  0  0  0  0
 14 17  1  0  0  0  0
  8 18  1  0  0  0  0
  7 19  1  0  0  0  0
  2 20  1  0  0  0  0
  2 21  1  0  0  0  0
  2 22  1  0  0  0  0
  3 23  1  0  0  0  0
  3 24  1  0  0  0  0
  3 25  1  0  0  0  0
  4 26  1  0  0  0  0
  4 27  1  0  0  0  0
  4 28  1  0  0  0  0
M  CHG  1   1  -1
M  END
