28

C          0.91386       -0.04999        0.00895
C          0.40719       -1.48276        0.03826
C          0.40719        0.69177        1.23512
C          0.40720        0.64102       -1.24651
O          2.33386       -0.04999        0.00895
C          3.04386       -0.64296        1.08630
C          4.20032       -0.06082        1.58269
C          4.97198       -0.64917        2.55546
C          4.64734       -1.86503        3.11065
C          3.50476       -2.46027        2.63066
C          2.74333       -1.87389        1.65284
F          1.67878       -2.56922        1.23293
F          3.12326       -3.64829        3.08551
B          5.54531       -2.54563        4.24662
F          4.77186       -2.72663        5.41157
F          6.00984       -3.79680        3.79177
F          6.64556       -1.71324        4.53757
F          6.06864        0.01133        2.93616
F          4.61466        1.11616        1.12482
H          0.76385       -1.96919        0.92204
H         -0.66281       -1.48276        0.03826
H          0.76385       -2.00492       -0.82490
H          0.76386        1.70037        1.21449
H         -0.66281        0.69177        1.23512
H          0.76385        0.20533        2.11890
H          0.76386        1.64961       -1.26714
H          0.76386        0.11886       -2.10967
H         -0.66280        0.64102       -1.24651
