19

C          1.10862       -0.00360       -0.30811
C          0.51810       -0.89328        0.76781
O          0.44767        1.25124       -0.30832
P          1.02434        2.34899        0.89804
O          2.20706        2.60547       -0.06005
O         -0.22458        3.33202        0.44174
C         -1.39716        3.22404        1.22027
C         -2.59132        3.18057        0.28830
O          1.60100        3.44674        2.10440
H          0.95682       -0.45914       -1.29144
H          2.18635        0.11689       -0.16067
H          0.66829       -0.45581        1.76012
H         -0.56224       -1.00320        0.62809
H          0.98020       -1.88432        0.74946
H         -1.37541        2.31984        1.83856
H         -1.45951        4.09340        1.88111
H         -2.51741        2.32468       -0.39129
H         -3.52550        3.10341        0.85117
H         -2.62727        4.07918       -0.33656
