23

C          1.09567        0.04524       -0.19024
C          0.38061        0.83236        0.90806
C          0.89589        2.25593        1.15153
C          0.42395        3.34651        0.18845
C         -1.09098        3.47920        0.01829
C         -1.81117        3.84800        1.30647
S          0.33147        0.06266       -1.79906
O          0.99950       -1.04598       -2.48058
O         -1.08526       -0.16394       -1.52187
O          0.65702        1.37935       -2.33650
H          1.09478       -1.01256        0.10356
H          2.14059        0.34986       -0.30597
H         -0.70571        0.81760        0.78593
H          0.57264        0.28859        1.84389
H          0.59879        2.54959        2.16647
H          1.99307        2.24769        1.16073
H          0.81850        4.30677        0.54571
H          0.88426        3.19565       -0.79052
H         -1.28742        4.26241       -0.72391
H         -1.51759        2.55765       -0.39017
H         -1.41147        4.77686        1.72590
H         -2.87801        3.99763        1.11166
H         -1.71840        3.06019        2.05964
