19

F          1.15056       -0.41080       -0.05104
C          2.47115       -0.08778       -0.20047
C          2.76020        0.30900       -1.65831
O          3.82136        0.96892       -1.86394
O          1.92442       -0.08824       -2.52802
C          2.84481        1.00413        0.76825
C          2.37933        0.69978        2.18392
C          2.87479       -0.56907        2.84739
C          4.38756       -0.65159        2.93903
F          4.92248        0.43093        3.55218
F          4.76696       -1.73188        3.67502
F          4.99542       -0.78012        1.74394
F          2.36437       -0.60056        4.12910
F          2.35787       -1.68092        2.25762
F          2.73877        1.75940        2.98824
F          1.00767        0.70259        2.23212
F          4.18556        1.23469        0.82115
F          2.27425        2.19596        0.40734
F          3.16486       -1.22980        0.08984
