21

Cl         2.20720        0.21233        0.61674
C          0.53423       -0.03563        0.28729
C         -0.23701        1.01932       -0.20556
C         -1.59846        0.83289       -0.49882
C         -2.17011       -0.41962       -0.23862
O         -3.47805       -0.70994       -0.52108
C         -4.40450       -0.17047        0.45455
C         -4.10867       -0.58254        1.91120
O         -3.92049        0.38486        2.70795
O         -4.14724       -1.82378        2.15836
C         -1.38794       -1.47781        0.23408
C         -0.03411       -1.28683        0.50360
C         -2.39961        1.98552       -1.02497
H          0.22127        1.99179       -0.36227
H         -4.47490        0.91639        0.34845
H         -5.39130       -0.57155        0.19515
H         -1.85734       -2.44058        0.42644
H          0.55501       -2.10971        0.89464
H         -2.85677        2.53525       -0.19650
H         -1.76422        2.67792       -1.58772
H         -3.18189        1.64580       -1.71098
