14

C          1.06376        0.09207       -0.16076
C          0.53390        1.45492        0.27493
C          1.06472        2.61975       -0.54563
S          0.44140       -0.50006       -1.72037
O          0.90835       -1.88565       -1.74628
O         -1.00673       -0.34839       -1.59780
O          1.07755        0.37019       -2.70627
H          0.76535       -0.65406        0.58513
H          2.15740        0.08925       -0.21707
H         -0.56139        1.46918        0.25845
H          0.83329        1.61471        1.31804
H          0.64939        2.62136       -1.55681
H          0.78055        3.56739       -0.07634
H          2.15656        2.59117       -0.61466
