 xtb: 6.7.1 (edcfbbe)
          12202401523D

  5  4  0     0  0            999 V2000
    1.0080   -0.1425    0.0018 C   0  0  0  0  0  0  0  0  0  0  0  0
    0.2383   -1.0078    0.4139 O   0  0  0  0  0  0  0  0  0  0  0  0
    0.3289    1.0211   -0.5522 O   0  0  0  0  0  0  0  0  0  0  0  0
    2.2245   -0.0760   -0.0297 O   0  0  0  0  0  0  0  0  0  0  0  0
   -0.6116    0.8273   -0.4599 H   0  0  0  0  0  0  0  0  0  0  0  0
  1  2  2  0  0  0  0
  1  3  1  0  0  0  0
  1  4  2  0  0  0  0
  3  5  1  0  0  0  0
M  CHG  1   1  -1
M  END
