23

O          1.35183        0.17176       -0.19701
S          2.79971        0.02347       -0.16865
O          3.37409       -0.77007       -1.24709
O          3.55580        1.21513        0.19201
N          3.06416       -0.95973        1.18992
C          2.49969       -2.31889        1.14993
C          3.61591       -3.34069        0.90854
C          3.09208       -4.77261        0.99474
C          2.37722       -5.03300        2.31782
C          1.27300       -4.01117        2.57255
C          1.80138       -2.58152        2.48879
H          4.04148       -0.87865        1.45589
H          1.74974       -2.40573        0.35413
H          4.07316       -3.17911       -0.07447
H          4.41672       -3.20558        1.64767
H          3.92401       -5.47685        0.88136
H          2.40072       -4.95815        0.16355
H          3.10442       -4.99489        3.13826
H          1.95179       -6.04284        2.31488
H          0.83096       -4.18382        3.56022
H          0.47203       -4.14770        1.83550
H          2.49727       -2.40200        3.31906
H          0.97178       -1.87624        2.62196
