 xtb: 6.7.1 (edcfbbe)
          12202401523D

 10 10  0     0  0            999 V2000
    1.0710   -0.0998    0.0016 N   0  0  0  0  0  0  0  0  0  0  0  0
    0.4977    0.5305    0.8924 O   0  0  0  0  0  0  0  0  0  0  0  0
    0.5523   -0.4221   -1.0624 O   0  0  0  0  0  0  0  0  0  0  0  0
    2.5721   -0.2294    0.1423 C   0  0  0  0  0  0  0  0  0  0  0  0
    2.9862    0.9978   -0.5018 N   0  0  0  0  0  0  0  0  0  0  0  0
    3.5675    0.6509   -1.6092 N   0  0  0  0  0  0  0  0  0  0  0  0
    3.6231   -0.7001   -1.6390 C   0  0  0  0  0  0  0  0  0  0  0  0
    3.0924   -1.3112   -0.6119 N   0  0  0  0  0  0  0  0  0  0  0  0
    2.7607   -0.2651    1.2213 H   0  0  0  0  0  0  0  0  0  0  0  0
    4.0929   -1.2242   -2.4541 H   0  0  0  0  0  0  0  0  0  0  0  0
  1  2  4  0  0  0  0
  1  3  4  0  0  0  0
  1  4  1  0  0  0  0
  4  5  1  0  0  0  0
  5  6  4  0  0  0  0
  6  7  4  0  0  0  0
  4  8  1  0  0  0  0
  7  8  2  0  0  0  0
  4  9  1  0  0  0  0
  7 10  1  0  0  0  0
M  CHG  1   1  -1
M  END
