10

N          0.93885       -0.05317        0.06482
O          0.41697        0.07545        1.18293
O          0.32355       -0.12374       -1.01066
C          2.47205       -0.11508        0.00967
N          3.05515        1.04234       -0.69534
N          3.77031        0.61562       -1.62967
C          3.72134       -0.75163       -1.59388
N          3.02158       -1.31867       -0.66420
H          2.80997       -0.10824        1.05303
H          4.28609       -1.33555       -2.33744
