 xtb: 6.7.1 (edcfbbe)
          12202401523D

  7  6  0     0  0            999 V2000
    1.0736    0.0086    0.0944 F   0  0  0  0  0  0  0  0  0  0  0  0
    2.9918    0.0086    0.0944 Sb  0  0  0  0  0  0  0  0  0  0  0  0
    2.9918   -1.3264    1.4718 F   0  0  0  0  0  0  0  0  0  0  0  0
    2.9918   -1.3688   -1.2406 F   0  0  0  0  0  0  0  0  0  0  0  0
    4.9100    0.0086    0.0944 F   0  0  0  0  0  0  0  0  0  0  0  0
    2.9918    1.3437   -1.2830 F   0  0  0  0  0  0  0  0  0  0  0  0
    2.9918    1.3860    1.4295 F   0  0  0  0  0  0  0  0  0  0  0  0
  1  2  1  0  0  0  0
  2  3  1  0  0  0  0
  2  4  1  0  0  0  0
  2  5  1  0  0  0  0
  2  6  1  0  0  0  0
  2  7  1  0  0  0  0
M  CHG  1   1  -1
M  END
