 xtb: 6.7.1 (edcfbbe)
          12202401523D

 14 13  0     0  0            999 V2000
    1.0069   -0.1257    0.0321 C   0  0  0  0  0  0  0  0  0  0  0  0
    0.4720   -1.4973   -0.3800 C   0  0  0  0  0  0  0  0  0  0  0  0
    1.0003   -2.6081    0.5193 C   0  0  0  0  0  0  0  0  0  0  0  0
    0.3961    0.4627    1.4476 B   0  0  0  0  0  0  0  0  0  0  0  0
    0.7476    1.8245    1.6027 F   0  0  0  0  0  0  0  0  0  0  0  0
   -1.0137    0.3889    1.4808 F   0  0  0  0  0  0  0  0  0  0  0  0
    0.8756   -0.2166    2.5884 F   0  0  0  0  0  0  0  0  0  0  0  0
    0.7616    0.5946   -0.7551 H   0  0  0  0  0  0  0  0  0  0  0  0
    2.0989   -0.1674    0.0909 H   0  0  0  0  0  0  0  0  0  0  0  0
   -0.6186   -1.4763   -0.3180 H   0  0  0  0  0  0  0  0  0  0  0  0
    0.7425   -1.7194   -1.4231 H   0  0  0  0  0  0  0  0  0  0  0  0
    0.7581   -2.3790    1.5520 H   0  0  0  0  0  0  0  0  0  0  0  0
    0.5629   -3.5734    0.2552 H   0  0  0  0  0  0  0  0  0  0  0  0
    2.0842   -2.6842    0.4329 H   0  0  0  0  0  0  0  0  0  0  0  0
  1  2  1  0  0  0  0
  2  3  1  0  0  0  0
  1  4  1  0  0  0  0
  4  5  1  0  0  0  0
  4  6  1  0  0  0  0
  4  7  1  0  0  0  0
  1  8  1  0  0  0  0
  1  9  1  0  0  0  0
  2 10  1  0  0  0  0
  2 11  1  0  0  0  0
  3 12  1  0  0  0  0
  3 13  1  0  0  0  0
  3 14  1  0  0  0  0
M  CHG  1   1  -1
M  END
