 xtb: 6.7.1 (edcfbbe)
          12202401523D

 22 21  0     0  0            999 V2000
    1.2809    0.2637    0.6307 F   0  0  0  0  0  0  0  0  0  0  0  0
    2.4966   -0.2001    0.1966 C   0  0  0  0  0  0  0  0  0  0  0  0
    2.5923   -2.0149    0.1900 C   0  0  0  0  0  0  0  0  0  0  0  0
    3.7113   -2.3439   -0.0771 O   0  0  0  0  0  0  0  0  0  0  0  0
    1.5198   -2.4755    0.4463 O   0  0  0  0  0  0  0  0  0  0  0  0
    2.7673    0.4043   -1.1839 C   0  0  0  0  0  0  0  0  0  0  0  0
    2.3433    1.8973   -1.4185 C   0  0  0  0  0  0  0  0  0  0  0  0
    2.9297    2.9902   -0.4846 C   0  0  0  0  0  0  0  0  0  0  0  0
    4.4692    3.2315   -0.5123 C   0  0  0  0  0  0  0  0  0  0  0  0
    5.0922    3.5971   -1.8938 C   0  0  0  0  0  0  0  0  0  0  0  0
    4.3528    4.4795   -2.5626 F   0  0  0  0  0  0  0  0  0  0  0  0
    6.2830    4.1673   -1.6889 F   0  0  0  0  0  0  0  0  0  0  0  0
    5.2891    2.5440   -2.6676 F   0  0  0  0  0  0  0  0  0  0  0  0
    4.6989    4.2975    0.2946 F   0  0  0  0  0  0  0  0  0  0  0  0
    5.1585    2.2125    0.0055 F   0  0  0  0  0  0  0  0  0  0  0  0
    2.3637    4.1703   -0.8576 F   0  0  0  0  0  0  0  0  0  0  0  0
    2.5586    2.8027    0.7855 F   0  0  0  0  0  0  0  0  0  0  0  0
    2.6944    2.2551   -2.6860 F   0  0  0  0  0  0  0  0  0  0  0  0
    1.0056    2.0135   -1.3729 F   0  0  0  0  0  0  0  0  0  0  0  0
    4.0828    0.3331   -1.4918 F   0  0  0  0  0  0  0  0  0  0  0  0
    2.1195   -0.2920   -2.1469 F   0  0  0  0  0  0  0  0  0  0  0  0
    3.4152    0.3509    1.0608 F   0  0  0  0  0  0  0  0  0  0  0  0
  1  2  1  0  0  0  0
  2  3  1  0  0  0  0
  3  4  2  0  0  0  0
  3  5  2  0  0  0  0
  2  6  1  0  0  0  0
  6  7  1  0  0  0  0
  7  8  1  0  0  0  0
  8  9  1  0  0  0  0
  9 10  1  0  0  0  0
 10 11  1  0  0  0  0
 10 12  1  0  0  0  0
 10 13  1  0  0  0  0
  9 14  1  0  0  0  0
  9 15  1  0  0  0  0
  8 16  1  0  0  0  0
  8 17  1  0  0  0  0
  7 18  1  0  0  0  0
  7 19  1  0  0  0  0
  6 20  1  0  0  0  0
  6 21  1  0  0  0  0
  2 22  1  0  0  0  0
M  CHG  1   1  -1
M  END
