 xtb: 6.7.1 (edcfbbe)
          12202401523D

 29 28  0     0  0            999 V2000
    0.8652    1.0770    0.0031 F   0  0  0  0  0  0  0  0  0  0  0  0
    1.8628    0.2583    0.4150 C   0  0  0  0  0  0  0  0  0  0  0  0
    2.5524   -0.3806   -0.7842 C   0  0  0  0  0  0  0  0  0  0  0  0
    2.5774    0.4706   -2.0894 C   0  0  0  0  0  0  0  0  0  0  0  0
    3.0510    1.9531   -2.2200 C   0  0  0  0  0  0  0  0  0  0  0  0
    4.5973    2.1906   -2.2677 C   0  0  0  0  0  0  0  0  0  0  0  0
    5.1533    2.4947   -3.7165 C   0  0  0  0  0  0  0  0  0  0  0  0
    4.7883    3.8233   -4.4618 C   0  0  0  0  0  0  0  0  0  0  0  0
    4.6025    5.1085   -3.6052 C   0  0  0  0  0  0  0  0  0  0  0  0
    5.6836    5.3776   -2.8852 F   0  0  0  0  0  0  0  0  0  0  0  0
    4.4114    6.1442   -4.4276 F   0  0  0  0  0  0  0  0  0  0  0  0
    3.5478    5.0351   -2.8120 F   0  0  0  0  0  0  0  0  0  0  0  0
    5.8052    4.0804   -5.3187 F   0  0  0  0  0  0  0  0  0  0  0  0
    3.7002    3.6717   -5.2306 F   0  0  0  0  0  0  0  0  0  0  0  0
    6.4982    2.5142   -3.5836 F   0  0  0  0  0  0  0  0  0  0  0  0
    4.8738    1.4770   -4.5477 F   0  0  0  0  0  0  0  0  0  0  0  0
    4.9569    3.2401   -1.5188 F   0  0  0  0  0  0  0  0  0  0  0  0
    5.2969    1.1213   -1.8813 F   0  0  0  0  0  0  0  0  0  0  0  0
    2.5975    2.2988   -3.4788 F   0  0  0  0  0  0  0  0  0  0  0  0
    2.4146    2.8069   -1.4333 F   0  0  0  0  0  0  0  0  0  0  0  0
    3.2999   -0.2255   -3.0023 F   0  0  0  0  0  0  0  0  0  0  0  0
    1.3106    0.4628   -2.5640 F   0  0  0  0  0  0  0  0  0  0  0  0
    3.7803   -0.8107   -0.4753 F   0  0  0  0  0  0  0  0  0  0  0  0
    1.8933   -1.5203   -1.1722 F   0  0  0  0  0  0  0  0  0  0  0  0
    3.2178    1.2524    1.2978 S   0  0  0  0  0  0  0  0  0  0  0  0
    2.5200    2.2917    1.9972 O   0  0  0  0  0  0  0  0  0  0  0  0
    3.8890    0.2756    2.1059 O   0  0  0  0  0  0  0  0  0  0  0  0
    3.9073    1.6583    0.0829 O   0  0  0  0  0  0  0  0  0  0  0  0
    1.2760   -0.6959    1.1726 F   0  0  0  0  0  0  0  0  0  0  0  0
  1  2  1  0  0  0  0
  2  3  1  0  0  0  0
  3  4  1  0  0  0  0
  4  5  1  0  0  0  0
  5  6  1  0  0  0  0
  6  7  1  0  0  0  0
  7  8  1  0  0  0  0
  8  9  1  0  0  0  0
  9 10  1  0  0  0  0
  9 11  1  0  0  0  0
  9 12  1  0  0  0  0
  8 13  1  0  0  0  0
  8 14  1  0  0  0  0
  7 15  1  0  0  0  0
  7 16  1  0  0  0  0
  6 17  1  0  0  0  0
  6 18  1  0  0  0  0
  5 19  1  0  0  0  0
  5 20  1  0  0  0  0
  4 21  1  0  0  0  0
  4 22  1  0  0  0  0
  3 23  1  0  0  0  0
  3 24  1  0  0  0  0
  2 25  1  0  0  0  0
 25 26  2  0  0  0  0
 25 27  2  0  0  0  0
 25 28  2  0  0  0  0
  2 29  1  0  0  0  0
M  CHG  1   1  -1
M  END
