29

C          1.91676        0.35126        0.02259
C          0.79060        0.24822       -1.01165
C          1.38222        0.23145       -2.42899
C          0.01189       -1.06306       -0.80065
C         -0.18636        1.41130       -0.78426
O         -1.03982        1.38860        0.10172
C         -0.08852        2.62445       -1.60886
C         -1.25724        3.44070       -2.00301
O         -1.03639        4.59789       -2.35755
C         -2.64071        2.79504       -1.96626
F         -2.54372        1.45971       -2.25258
F         -3.19504        2.87965       -0.72518
C         -3.55090        3.44951       -2.98162
F         -3.74649        4.76791       -2.69712
F         -2.98292        3.40464       -4.22438
C         -4.88023        2.72200       -2.99758
F         -4.75283        1.42206       -3.35758
F         -5.50551        2.74535       -1.79849
F         -5.73434        3.28322       -3.89212
H          2.61283       -0.49051       -0.06423
H          1.51983        0.35409        1.04437
H          2.48868        1.27721       -0.10524
H          1.97607       -0.67402       -2.59853
H          0.59327        0.26060       -3.18935
H          2.04430        1.08657       -2.60387
H         -0.38720       -1.13556        0.21777
H         -0.84022       -1.12618       -1.48814
H          0.64824       -1.93854       -0.96927
H          0.88745        2.99813       -1.88331
