 xtb: 6.7.1 (edcfbbe)
          12202401523D

 22 21  0     0  0            999 V2000
    0.8450   -0.2010    0.1367 C   0  0  0  0  0  0  0  0  0  0  0  0
    0.0906    1.1821   -0.5387 S   0  0  0  0  0  0  0  0  0  0  0  0
   -1.1951    0.7411   -0.9966 O   0  0  0  0  0  0  0  0  0  0  0  0
    0.1115    2.3126    0.3325 O   0  0  0  0  0  0  0  0  0  0  0  0
    0.9959    1.7702   -2.1262 C   0  0  0  0  0  0  0  0  0  0  0  0
    1.4501    3.0136   -1.9856 F   0  0  0  0  0  0  0  0  0  0  0  0
    2.0255    0.9925   -2.4593 F   0  0  0  0  0  0  0  0  0  0  0  0
    0.1483    1.7817   -3.1551 F   0  0  0  0  0  0  0  0  0  0  0  0
    0.4668   -1.5403   -0.8663 S   0  0  0  0  0  0  0  0  0  0  0  0
    0.3683   -1.2391   -2.2602 O   0  0  0  0  0  0  0  0  0  0  0  0
    1.2689   -2.6629   -0.4807 O   0  0  0  0  0  0  0  0  0  0  0  0
   -1.3010   -2.0219   -0.3224 C   0  0  0  0  0  0  0  0  0  0  0  0
   -1.6590   -1.4006    0.7991 F   0  0  0  0  0  0  0  0  0  0  0  0
   -2.2203   -1.8002   -1.2492 F   0  0  0  0  0  0  0  0  0  0  0  0
   -1.3335   -3.3367   -0.0584 F   0  0  0  0  0  0  0  0  0  0  0  0
    2.5162    0.0564    0.4728 S   0  0  0  0  0  0  0  0  0  0  0  0
    2.8524    1.3809    0.0431 O   0  0  0  0  0  0  0  0  0  0  0  0
    2.8722   -0.3139    1.8069 O   0  0  0  0  0  0  0  0  0  0  0  0
    3.6636   -1.0763   -0.5694 C   0  0  0  0  0  0  0  0  0  0  0  0
    3.9152   -2.2319    0.0337 F   0  0  0  0  0  0  0  0  0  0  0  0
    3.2575   -1.3210   -1.8111 F   0  0  0  0  0  0  0  0  0  0  0  0
    4.8333   -0.4288   -0.6612 F   0  0  0  0  0  0  0  0  0  0  0  0
  1  2  1  0  0  0  0
  2  3  2  0  0  0  0
  2  4  2  0  0  0  0
  2  5  1  0  0  0  0
  5  6  1  0  0  0  0
  5  7  1  0  0  0  0
  5  8  1  0  0  0  0
  1  9  1  0  0  0  0
  9 10  2  0  0  0  0
  9 11  2  0  0  0  0
  9 12  1  0  0  0  0
 12 13  1  0  0  0  0
 12 14  1  0  0  0  0
 12 15  1  0  0  0  0
  1 16  1  0  0  0  0
 16 17  2  0  0  0  0
 16 18  2  0  0  0  0
 16 19  1  0  0  0  0
 19 20  1  0  0  0  0
 19 21  1  0  0  0  0
 19 22  1  0  0  0  0
M  CHG  1   1  -1
M  END
