22

C          0.95453       -0.24207       -0.44124
S          0.01430        1.12062       -0.82505
O         -1.20637        0.64635       -1.45719
O         -0.12962        1.92908        0.37294
C          1.08204        1.94764       -2.06786
F          1.55017        3.15290       -1.65470
F          2.17014        1.17851       -2.36711
F          0.43183        2.15960       -3.24375
S          0.43960       -1.77195       -0.94943
O          0.27794       -1.70097       -2.39202
O          1.38232       -2.74509       -0.42385
C         -1.17343       -1.95042       -0.08353
F         -1.31753       -1.01917        0.89875
F         -2.24102       -1.83692       -0.91411
F         -1.28410       -3.16476        0.52344
S          2.41892       -0.04902        0.39108
O          2.76801        1.36203        0.31485
O          2.24615       -0.65030        1.70310
C          3.63648       -0.99335       -0.60905
F          3.95786       -2.19893       -0.07509
F          3.18525       -1.20802       -1.87515
F          4.80857       -0.30954       -0.74056
