 xtb: 6.7.1 (edcfbbe)
          12202401523D

 20 19  0     0  0            999 V2000
    1.1490   -0.1013   -0.1179 C   0  0  0  0  0  0  0  0  0  0  0  0
    0.4309    1.1886    0.2971 C   0  0  0  0  0  0  0  0  0  0  0  0
    0.7989    2.4201   -0.5332 C   0  0  0  0  0  0  0  0  0  0  0  0
    0.3245    2.3846   -1.9846 C   0  0  0  0  0  0  0  0  0  0  0  0
   -1.1930    2.4328   -2.1123 C   0  0  0  0  0  0  0  0  0  0  0  0
    0.4606   -1.0079   -1.3169 B   0  0  0  0  0  0  0  0  0  0  0  0
    0.6973   -2.3814   -1.0778 F   0  0  0  0  0  0  0  0  0  0  0  0
   -0.9373   -0.8385   -1.3960 F   0  0  0  0  0  0  0  0  0  0  0  0
    0.9937   -0.7278   -2.5960 F   0  0  0  0  0  0  0  0  0  0  0  0
    1.1973   -0.7507    0.7623 H   0  0  0  0  0  0  0  0  0  0  0  0
    2.1846    0.1317   -0.3838 H   0  0  0  0  0  0  0  0  0  0  0  0
   -0.6465    1.0242    0.2519 H   0  0  0  0  0  0  0  0  0  0  0  0
    0.6800    1.4219    1.3427 H   0  0  0  0  0  0  0  0  0  0  0  0
    0.3788    3.3109   -0.0462 H   0  0  0  0  0  0  0  0  0  0  0  0
    1.8887    2.5288   -0.5264 H   0  0  0  0  0  0  0  0  0  0  0  0
    0.7615    3.2400   -2.5143 H   0  0  0  0  0  0  0  0  0  0  0  0
    0.6865    1.4731   -2.4529 H   0  0  0  0  0  0  0  0  0  0  0  0
   -1.6090    3.2646   -1.5410 H   0  0  0  0  0  0  0  0  0  0  0  0
   -1.4814    2.5512   -3.1559 H   0  0  0  0  0  0  0  0  0  0  0  0
   -1.6190    1.5034   -1.7496 H   0  0  0  0  0  0  0  0  0  0  0  0
  1  2  1  0  0  0  0
  2  3  1  0  0  0  0
  3  4  1  0  0  0  0
  4  5  1  0  0  0  0
  1  6  1  0  0  0  0
  6  7  1  0  0  0  0
  6  8  1  0  0  0  0
  6  9  1  0  0  0  0
  1 10  1  0  0  0  0
  1 11  1  0  0  0  0
  2 12  1  0  0  0  0
  2 13  1  0  0  0  0
  3 14  1  0  0  0  0
  3 15  1  0  0  0  0
  4 16  1  0  0  0  0
  4 17  1  0  0  0  0
  5 18  1  0  0  0  0
  5 19  1  0  0  0  0
  5 20  1  0  0  0  0
M  CHG  1   1  -1
M  END
