21

F          0.20415       -0.10132       -0.15846
C          1.53462        0.20039        0.00887
C          2.32664       -1.04850       -0.36112
C          2.24901       -1.45804       -1.83901
C          3.48497       -1.05810       -2.64375
O          4.59530       -1.77403       -2.13660
S          5.95452       -0.94374       -1.79136
O          5.49112        0.08644       -0.86616
O          6.81928       -1.95337       -1.19135
O          6.38926       -0.44774       -3.09213
C          1.85368        1.49130       -0.74940
F          1.05483        2.50904       -0.32340
F          3.12424        1.90839       -0.59459
F          1.62144        1.36720       -2.08133
F          1.67684        0.40132        1.35612
H          3.35678       -0.95514       -0.00964
H          1.89923       -1.87236        0.22653
H          2.17040       -2.55260       -1.87511
H          1.34312       -1.06158       -2.30970
H          3.35008       -1.34738       -3.69134
H          3.63512        0.02604       -2.61913
