 xtb: 6.7.1 (edcfbbe)
          12202401533D

 42 44  0     0  0            999 V2000
    0.3511   -1.0469    0.4441 C   0  0  0  0  0  0  0  0  0  0  0  0
   -1.1129   -0.6112    0.7108 C   0  0  0  0  0  0  0  0  0  0  0  0
   -1.0026    0.9203    0.8718 C   0  0  0  0  0  0  0  0  0  0  0  0
    0.4732    1.1917    0.5728 C   0  0  0  0  0  0  0  0  0  0  0  0
    0.6775    0.9205   -0.9246 C   0  0  0  0  0  0  0  0  0  0  0  0
    0.6220   -0.6170   -1.0097 C   0  0  0  0  0  0  0  0  0  0  0  0
    1.1766   -0.0050    1.2425 C   0  0  0  0  0  0  0  0  0  0  0  0
    2.6846   -0.0443    0.9858 C   0  0  0  0  0  0  0  0  0  0  0  0
    0.9905   -0.0677    2.7588 C   0  0  0  0  0  0  0  0  0  0  0  0
   -1.6089   -1.2677    1.8641 O   0  0  0  0  0  0  0  0  0  0  0  0
   -2.8648   -1.0022    2.3154 C   0  0  0  0  0  0  0  0  0  0  0  0
   -3.1367   -1.4076    3.6258 C   0  0  0  0  0  0  0  0  0  0  0  0
   -4.3767   -1.2222    4.2190 C   0  0  0  0  0  0  0  0  0  0  0  0
   -5.4335   -0.6088    3.5591 C   0  0  0  0  0  0  0  0  0  0  0  0
   -5.1560   -0.2117    2.2606 C   0  0  0  0  0  0  0  0  0  0  0  0
   -3.9227   -0.4011    1.6406 C   0  0  0  0  0  0  0  0  0  0  0  0
   -3.7864    0.0228    0.3529 F   0  0  0  0  0  0  0  0  0  0  0  0
   -6.0965    0.3902    1.5149 F   0  0  0  0  0  0  0  0  0  0  0  0
   -6.9472   -0.3043    4.2232 B   0  0  0  0  0  0  0  0  0  0  0  0
   -7.1508    1.0760    4.2425 F   0  0  0  0  0  0  0  0  0  0  0  0
   -7.9231   -0.9118    3.4363 F   0  0  0  0  0  0  0  0  0  0  0  0
   -7.0518   -0.7877    5.5160 F   0  0  0  0  0  0  0  0  0  0  0  0
   -4.5052   -1.6600    5.4817 F   0  0  0  0  0  0  0  0  0  0  0  0
   -2.1309   -1.9973    4.3210 F   0  0  0  0  0  0  0  0  0  0  0  0
    0.6094   -2.5134    0.7238 C   0  0  0  0  0  0  0  0  0  0  0  0
   -1.7376   -0.8857   -0.1465 H   0  0  0  0  0  0  0  0  0  0  0  0
   -1.6654    1.4516    0.1902 H   0  0  0  0  0  0  0  0  0  0  0  0
   -1.2635    1.2106    1.8895 H   0  0  0  0  0  0  0  0  0  0  0  0
    0.8081    2.1790    0.8903 H   0  0  0  0  0  0  0  0  0  0  0  0
   -0.1090    1.3887   -1.5161 H   0  0  0  0  0  0  0  0  0  0  0  0
    1.6314    1.3145   -1.2765 H   0  0  0  0  0  0  0  0  0  0  0  0
   -0.1650   -0.9637   -1.6792 H   0  0  0  0  0  0  0  0  0  0  0  0
    1.5619   -1.0406   -1.3640 H   0  0  0  0  0  0  0  0  0  0  0  0
    3.1590    0.7735    1.5261 H   0  0  0  0  0  0  0  0  0  0  0  0
    3.1006   -0.9783    1.3580 H   0  0  0  0  0  0  0  0  0  0  0  0
    2.9468    0.0497   -0.0618 H   0  0  0  0  0  0  0  0  0  0  0  0
   -0.0232   -0.3170    3.0445 H   0  0  0  0  0  0  0  0  0  0  0  0
    1.6433   -0.8294    3.1802 H   0  0  0  0  0  0  0  0  0  0  0  0
    1.2558    0.8904    3.2038 H   0  0  0  0  0  0  0  0  0  0  0  0
    1.6524   -2.7601    0.5355 H   0  0  0  0  0  0  0  0  0  0  0  0
    0.3676   -2.7420    1.7574 H   0  0  0  0  0  0  0  0  0  0  0  0
   -0.0147   -3.1309    0.0808 H   0  0  0  0  0  0  0  0  0  0  0  0
  1  2  1  0  0  0  0
  2  3  1  0  0  0  0
  3  4  1  0  0  0  0
  4  5  1  0  0  0  0
  1  6  1  0  0  0  0
  5  6  1  0  0  0  0
  1  7  1  0  0  0  0
  4  7  1  0  0  0  0
  7  8  1  0  0  0  0
  7  9  1  0  0  0  0
  2 10  1  0  0  0  0
 10 11  1  0  0  0  0
 11 12  4  0  0  0  0
 12 13  4  0  0  0  0
 13 14  4  0  0  0  0
 14 15  4  0  0  0  0
 11 16  4  0  0  0  0
 15 16  4  0  0  0  0
 16 17  1  0  0  0  0
 15 18  1  0  0  0  0
 14 19  1  0  0  0  0
 19 20  1  0  0  0  0
 19 21  1  0  0  0  0
 19 22  1  0  0  0  0
 13 23  1  0  0  0  0
 12 24  1  0  0  0  0
  1 25  1  0  0  0  0
  2 26  1  0  0  0  0
  3 27  1  0  0  0  0
  3 28  1  0  0  0  0
  4 29  1  0  0  0  0
  5 30  1  0  0  0  0
  5 31  1  0  0  0  0
  6 32  1  0  0  0  0
  6 33  1  0  0  0  0
  8 34  1  0  0  0  0
  8 35  1  0  0  0  0
  8 36  1  0  0  0  0
  9 37  1  0  0  0  0
  9 38  1  0  0  0  0
  9 39  1  0  0  0  0
 25 40  1  0  0  0  0
 25 41  1  0  0  0  0
 25 42  1  0  0  0  0
M  CHG  1   1  -1
M  END
