65

C          1.14952        0.77293       -1.17697
C          1.22361        1.79771       -2.29806
C          0.33347       -0.50221       -1.48833
C          0.74615       -1.62452       -0.49777
O          0.26208       -1.31129        0.81595
C          1.10387       -1.70722        1.83068
C          2.02715       -0.57525        2.17701
C          1.31289        0.64650        2.72938
C          0.67046        0.56349        4.08519
O          0.34134        1.57768        4.69597
O          0.33708       -0.69096        4.44789
C         -0.35113       -0.86522        5.69780
C          0.60918       -1.20888        6.85714
C          1.60429       -0.07044        7.20087
C          1.00442        1.24056        7.73391
C          0.90706        1.36753        9.25697
C          2.25771        1.40139        9.95566
C         -0.15712       -1.66862        8.11240
C         -0.81798       -3.03251        7.95995
S          3.46069       -1.07470        3.04899
O          4.05741       -2.07385        2.16399
O          4.22497        0.17243        3.11914
O          3.00619       -1.56231        4.34270
O          0.95348       -2.79839        2.35499
C         -1.19901       -0.30192       -1.39490
C         -1.88849        0.52553       -2.48238
C         -1.61612        0.10050       -3.92499
C         -2.03443       -1.33097       -4.22141
H          0.76937        1.25984       -0.27279
H          2.18506        0.47963       -0.96355
H          1.48279        1.32919       -3.25167
H          0.29017        2.34881       -2.41458
H          1.99784        2.53834       -2.06874
H          0.60429       -0.85601       -2.48971
H          0.28294       -2.56984       -0.80382
H          1.83344       -1.77235       -0.50652
H          2.46007       -0.25763        1.21773
H          2.01906        1.48458        2.77068
H          0.50837        0.94137        2.04480
H         -0.98783       -0.00421        5.92857
H         -1.03616       -1.70114        5.52564
H          1.23284       -2.04754        6.51753
H          2.35037       -0.45944        7.90246
H          2.17426        0.16838        6.29579
H          1.62777        2.06857        7.37101
H          0.00892        1.40857        7.31234
H          0.38433        2.30520        9.48391
H          0.29680        0.56570        9.68072
H          2.90428        2.17344        9.52681
H          2.12260        1.62677       11.01852
H          2.77257        0.43940        9.88628
H          0.53882       -1.73364        8.95775
H         -0.92495       -0.93322        8.37853
H         -0.08689       -3.79228        7.66627
H         -1.25937       -3.34097        8.91342
H         -1.61974       -3.01552        7.21709
H         -1.67762       -1.29015       -1.38145
H         -1.44574        0.15548       -0.42755
H         -2.97102        0.47182       -2.30484
H         -1.63688        1.58248       -2.36245
H         -2.17340        0.77069       -4.59078
H         -0.55821        0.23123       -4.17288
H         -3.08591       -1.49396       -3.96466
H         -1.90878       -1.54556       -5.28741
H         -1.42659       -2.04966       -3.66393
