 xtb: 6.7.1 (edcfbbe)
          12202401533D

  4  3  0     0  0            999 V2000
    0.8255    0.0702   -0.0671 C   0  0  0  0  0  0  0  0  0  0  0  0
    0.3239    0.1282    1.0543 O   0  0  0  0  0  0  0  0  0  0  0  0
    0.3190    0.0123   -1.1863 O   0  0  0  0  0  0  0  0  0  0  0  0
    2.0158    0.0701   -0.0697 H   0  0  0  0  0  0  0  0  0  0  0  0
  1  2  2  0  0  0  0
  1  3  2  0  0  0  0
  1  4  1  0  0  0  0
M  CHG  1   1  -1
M  END
