 xtb: 6.7.1 (edcfbbe)
          12202401533D

 12 11  0     0  0            999 V2000
    1.0484    0.0373    0.2469 C   0  0  0  0  0  0  0  0  0  0  0  0
    0.4794   -1.3413    0.5716 C   0  0  0  0  0  0  0  0  0  0  0  0
    0.4475    1.0412    1.0017 O   0  0  0  0  0  0  0  0  0  0  0  0
    1.2451    1.1738    2.4635 S   0  0  0  0  0  0  0  0  0  0  0  0
    0.9934   -0.0722    3.1709 O   0  0  0  0  0  0  0  0  0  0  0  0
    2.6431    1.3571    2.1071 O   0  0  0  0  0  0  0  0  0  0  0  0
    0.6207    2.3312    3.0656 O   0  0  0  0  0  0  0  0  0  0  0  0
    0.8926    0.2829   -0.8152 H   0  0  0  0  0  0  0  0  0  0  0  0
    2.1236    0.0538    0.4659 H   0  0  0  0  0  0  0  0  0  0  0  0
    0.5662   -1.4755    1.6472 H   0  0  0  0  0  0  0  0  0  0  0  0
   -0.5708   -1.3942    0.2896 H   0  0  0  0  0  0  0  0  0  0  0  0
    1.0342   -2.1178    0.0470 H   0  0  0  0  0  0  0  0  0  0  0  0
  1  2  1  0  0  0  0
  1  3  1  0  0  0  0
  3  4  1  0  0  0  0
  4  5  2  0  0  0  0
  4  6  2  0  0  0  0
  4  7  2  0  0  0  0
  1  8  1  0  0  0  0
  1  9  1  0  0  0  0
  2 10  1  0  0  0  0
  2 11  1  0  0  0  0
  2 12  1  0  0  0  0
M  CHG  1   1  -1
M  END
