 xtb: 6.7.1 (edcfbbe)
          12202401533D

  3  3  0     0  0            999 V2000
    1.0671   -0.0363    0.0122 S   0  0  0  0  0  0  0  0  0  0  0  0
    2.6864   -0.0363    0.0123 C   0  0  0  0  0  0  0  0  0  0  0  0
    3.8503   -0.0363    0.0122 N   0  0  0  0  0  0  0  0  0  0  0  0
  1  2  2  0  0  0  0
  1  3  1  0  0  0  0
  2  3  3  0  0  0  0
M  CHG  1   1  -1
M  END
