 xtb: 6.7.1 (edcfbbe)
          12202401533D

 18 18  0     0  0            999 V2000
    0.9486    1.3166    2.8219 F   0  0  0  0  0  0  0  0  0  0  0  0
    1.7177    1.4325    1.7109 C   0  0  0  0  0  0  0  0  0  0  0  0
    0.8607    1.8143    0.7463 F   0  0  0  0  0  0  0  0  0  0  0  0
    2.5296    2.4728    1.9706 F   0  0  0  0  0  0  0  0  0  0  0  0
    2.4555    0.0971    1.4185 C   0  0  0  0  0  0  0  0  0  0  0  0
    2.2375   -0.8234    2.2176 O   0  0  0  0  0  0  0  0  0  0  0  0
    3.2843    0.0385    0.3030 C   0  0  0  0  0  0  0  0  0  0  0  0
    3.5687    1.0620   -0.6262 C   0  0  0  0  0  0  0  0  0  0  0  0
    3.1486    2.2260   -0.6438 O   0  0  0  0  0  0  0  0  0  0  0  0
    4.5005    0.6934   -1.7218 C   0  0  0  0  0  0  0  0  0  0  0  0
    5.1327   -0.4523   -2.1109 C   0  0  0  0  0  0  0  0  0  0  0  0
    5.9333   -0.2772   -3.2591 C   0  0  0  0  0  0  0  0  0  0  0  0
    5.8977    0.9991   -3.7257 C   0  0  0  0  0  0  0  0  0  0  0  0
    4.8817    2.0134   -2.7771 S   0  0  0  0  0  0  0  0  0  0  0  0
    3.7627   -0.9185    0.1562 H   0  0  0  0  0  0  0  0  0  0  0  0
    5.0323   -1.3940   -1.6015 H   0  0  0  0  0  0  0  0  0  0  0  0
    6.5076   -1.0683   -3.7136 H   0  0  0  0  0  0  0  0  0  0  0  0
    6.4098    1.4057   -4.5764 H   0  0  0  0  0  0  0  0  0  0  0  0
  1  2  1  0  0  0  0
  2  3  1  0  0  0  0
  2  4  1  0  0  0  0
  2  5  1  0  0  0  0
  5  6  2  0  0  0  0
  5  7  4  0  0  0  0
  7  8  4  0  0  0  0
  8  9  2  0  0  0  0
  8 10  1  0  0  0  0
 10 11  2  0  0  0  0
 11 12  4  0  0  0  0
 12 13  2  0  0  0  0
 10 14  1  0  0  0  0
 13 14  1  0  0  0  0
  7 15  1  0  0  0  0
 11 16  1  0  0  0  0
 12 17  1  0  0  0  0
 13 18  1  0  0  0  0
M  CHG  1   1  -1
M  END
