 xtb: 6.7.1 (edcfbbe)
          12202401533D

 18 18  0     0  0            999 V2000
    1.0578    2.3941    1.8390 F   0  0  0  0  0  0  0  0  0  0  0  0
    1.6186    1.7150    0.8060 C   0  0  0  0  0  0  0  0  0  0  0  0
    0.8210    0.6443    0.6383 F   0  0  0  0  0  0  0  0  0  0  0  0
    1.4460    2.5212   -0.2575 F   0  0  0  0  0  0  0  0  0  0  0  0
    3.1011    1.3723    1.1202 C   0  0  0  0  0  0  0  0  0  0  0  0
    3.5210    1.7695    2.2159 O   0  0  0  0  0  0  0  0  0  0  0  0
    3.8240    0.6631    0.1673 C   0  0  0  0  0  0  0  0  0  0  0  0
    3.3896    0.2007   -1.0941 C   0  0  0  0  0  0  0  0  0  0  0  0
    2.2776    0.3260   -1.6193 O   0  0  0  0  0  0  0  0  0  0  0  0
    4.4341   -0.5273   -1.8745 C   0  0  0  0  0  0  0  0  0  0  0  0
    4.3321   -1.0620   -3.1339 C   0  0  0  0  0  0  0  0  0  0  0  0
    5.5863   -1.6400   -3.4287 C   0  0  0  0  0  0  0  0  0  0  0  0
    6.3623   -1.4172   -2.3321 C   0  0  0  0  0  0  0  0  0  0  0  0
    5.6780   -0.7488   -1.3920 O   0  0  0  0  0  0  0  0  0  0  0  0
    4.8471    0.4526    0.4437 H   0  0  0  0  0  0  0  0  0  0  0  0
    3.4597   -1.0338   -3.7532 H   0  0  0  0  0  0  0  0  0  0  0  0
    5.8737   -2.1486   -4.3284 H   0  0  0  0  0  0  0  0  0  0  0  0
    7.3799   -1.6763   -2.1082 H   0  0  0  0  0  0  0  0  0  0  0  0
  1  2  1  0  0  0  0
  2  3  1  0  0  0  0
  2  4  1  0  0  0  0
  2  5  1  0  0  0  0
  5  6  2  0  0  0  0
  5  7  4  0  0  0  0
  7  8  4  0  0  0  0
  8  9  2  0  0  0  0
  8 10  1  0  0  0  0
 10 11  2  0  0  0  0
 11 12  4  0  0  0  0
 12 13  2  0  0  0  0
 10 14  1  0  0  0  0
 13 14  1  0  0  0  0
  7 15  1  0  0  0  0
 11 16  1  0  0  0  0
 12 17  1  0  0  0  0
 13 18  1  0  0  0  0
M  CHG  1   1  -1
M  END
