18

F          0.88288        1.89628        2.02783
C          1.54613        1.55689        0.88438
F          1.07564        0.32482        0.54434
F          1.12363        2.43527       -0.06298
C          3.06081        1.57335        1.07787
O          3.62333        2.13914        2.02203
C          3.93255        0.87028        0.11855
C          3.53209        0.40813       -1.21878
O          2.45758        0.77831       -1.68016
C          4.44797       -0.44828       -1.93943
C          4.35813       -1.00389       -3.20250
C          5.53546       -1.76397       -3.40014
C          6.27371       -1.62999       -2.24886
O          5.62558       -0.83667       -1.35761
H          4.95866        0.73037        0.43201
H          3.53373       -0.86972       -3.89093
H          5.81145       -2.33937       -4.27311
H          7.23047       -2.01638       -1.92412
