 xtb: 6.7.1 (edcfbbe)
          12202401533D

  7  7  0     0  0            999 V2000
    0.7702    0.8473   -0.0018 N   0  0  0  0  0  0  0  0  0  0  0  0
   -0.6104    1.0011   -0.0031 N   0  0  0  0  0  0  0  0  0  0  0  0
   -1.1394   -0.2122   -0.0004 C   0  0  0  0  0  0  0  0  0  0  0  0
   -0.0746   -1.1782    0.0030 N   0  0  0  0  0  0  0  0  0  0  0  0
    1.0166   -0.4897    0.0019 C   0  0  0  0  0  0  0  0  0  0  0  0
    1.4329    1.6178   -0.0035 H   0  0  0  0  0  0  0  0  0  0  0  0
    2.0385   -0.8652    0.0036 H   0  0  0  0  0  0  0  0  0  0  0  0
  1  2  1  0  0  0  0
  2  3  2  0  0  0  0
  3  4  1  0  0  0  0
  1  5  4  0  0  0  0
  4  5  2  0  0  0  0
  1  6  1  0  0  0  0
  5  7  1  0  0  0  0
M  CHG  1   1  -1
M  END
