27

Cl         2.61070       -0.41627        0.46663
C          0.91198       -0.52147        0.20603
C          0.24579        0.50444       -0.46307
C         -1.13675        0.42148       -0.72815
C         -1.84500       -0.69015       -0.24818
O         -3.16509       -0.96723       -0.46776
C         -4.14094        0.01787       -0.09697
C         -4.24751        0.25046        1.41433
C         -3.66273        1.58906        1.86266
C         -4.31518        2.83278        1.24794
O         -3.64067        3.89458        1.37954
O         -5.42543        2.65606        0.67774
C         -1.15772       -1.72204        0.40932
C          0.21562       -1.64176        0.63923
C         -1.76025        1.53643       -1.51678
H          0.80695        1.37256       -0.80213
H         -4.04198        0.92931       -0.68470
H         -5.09436       -0.41802       -0.42108
H         -5.30935        0.23652        1.69270
H         -3.76646       -0.56231        1.96972
H         -3.77984        1.67574        2.95005
H         -2.58741        1.61362        1.65605
H         -1.70781       -2.59906        0.74176
H          0.72736       -2.45244        1.14784
H         -2.24096        2.25527       -0.84846
H         -1.00545        2.07939       -2.09670
H         -2.48172        1.14722       -2.24126
