57

F          1.02403        0.09214       -0.03053
C          2.35403        0.09214       -0.03053
F          2.79737       -1.02359        0.54173
F          2.79737        0.15442       -1.28291
C          2.86070        1.29610        0.74676
O          2.38736        2.48734        0.13578
Al         3.01070        2.57490       -1.62510
O          4.88070        2.57490       -1.62510
C          5.35402        3.69965       -0.89895
C          4.84735        4.97478       -1.55296
F          3.51735        4.97478       -1.55296
F          5.29069        6.02824       -0.87283
F          5.29069        5.03706       -2.80535
C          4.84736        3.62848        0.53235
F          5.29069        2.51274        1.10462
F          5.29069        4.68194        1.21248
F          3.51736        3.62848        0.53235
C          6.87402        3.69965       -0.89895
F          7.31736        2.58391       -0.32669
F          7.31736        3.76193       -2.15134
F          7.31735        4.75311       -0.21882
O          2.38737        1.09372       -2.58137
C          2.86071       -0.09752       -1.97038
C          4.38071       -0.09751       -1.97037
F          4.82404        0.95595       -1.29025
F          4.82404       -1.21325       -1.39811
F          4.82404       -0.03524       -3.22276
C          2.35404       -0.16869       -0.53908
F          1.02404       -0.16870       -0.53907
F          2.79738       -1.28443        0.03319
F          2.79737        0.88477        0.14105
C          2.35404       -1.30148       -2.74767
F          1.02404       -1.30148       -2.74767
F          2.79737       -1.23920       -4.00005
F          2.79738       -2.41721       -2.17540
O          2.38736        4.14365       -2.42970
C          2.86069        4.21013       -3.76684
C          4.38069        4.21013       -3.76684
F          4.82403        3.09440       -3.19458
F          4.82403        4.27241       -5.01923
F          4.82402        5.26360       -3.08671
C          2.35403        3.00618       -4.54413
F          1.02403        3.00617       -4.54413
F          2.79736        3.06845       -5.79652
F          2.79737        1.89044       -3.97186
C          2.35402        5.48526       -4.42085
F          1.02402        5.48526       -4.42085
F          2.79735        6.53873       -3.74072
F          2.79736        5.54754       -5.67324
C          2.35403        1.22493        2.17806
F          2.79736        0.10919        2.75033
F          2.79736        2.27839        2.85819
F          1.02403        1.22493        2.17806
C          4.38070        1.29610        0.74676
F          4.82403        0.18037        1.31902
F          4.82403        1.35838       -0.50562
F          4.82402        2.34957        1.42689
