13

C          0.97449        0.07986        0.05121
C          0.20336       -1.11646        0.55478
C          0.57052       -1.76811        1.73683
C         -0.16883       -2.86227        2.15824
N         -1.24048       -3.35636        1.49759
C         -1.57813       -2.71175        0.35764
C         -0.90246       -1.61071       -0.14495
O          0.56876        0.61428       -1.02806
O          1.96886        0.45859        0.74615
H          1.42288       -1.41676        2.31072
H          0.09472       -3.38554        3.07160
H         -2.43892       -3.11502       -0.16572
H         -1.22121       -1.13425       -1.06728
