 xtb: 6.7.1 (edcfbbe)
          12202401533D

 11 10  0     0  0            999 V2000
    1.0606    0.0472   -0.0055 C   0  0  0  0  0  0  0  0  0  0  0  0
    0.3037    0.0167   -1.2507 C   0  0  0  0  0  0  0  0  0  0  0  0
   -1.0266    0.0142   -1.3502 C   0  0  0  0  0  0  0  0  0  0  0  0
   -1.7189   -0.0195   -2.7540 C   0  0  0  0  0  0  0  0  0  0  0  0
   -2.9543   -0.0199   -2.7242 O   0  0  0  0  0  0  0  0  0  0  0  0
   -0.9440   -0.0441   -3.7192 O   0  0  0  0  0  0  0  0  0  0  0  0
    0.6142    0.0745    1.1154 O   0  0  0  0  0  0  0  0  0  0  0  0
    2.4240    0.0429   -0.1734 O   0  0  0  0  0  0  0  0  0  0  0  0
    0.8631   -0.0061   -2.1825 H   0  0  0  0  0  0  0  0  0  0  0  0
   -1.6630    0.0356   -0.4756 H   0  0  0  0  0  0  0  0  0  0  0  0
    2.6308    0.0199   -1.1172 H   0  0  0  0  0  0  0  0  0  0  0  0
  1  2  1  0  0  0  0
  2  3  2  0  0  0  0
  3  4  1  0  0  0  0
  4  5  2  0  0  0  0
  4  6  2  0  0  0  0
  1  7  2  0  0  0  0
  1  8  1  0  0  0  0
  2  9  1  0  0  0  0
  3 10  1  0  0  0  0
  8 11  1  0  0  0  0
M  CHG  1   1  -1
M  END
