 xtb: 6.7.1 (edcfbbe)
          12202401533D

 18 17  0     0  0            999 V2000
    0.8696    2.1436   -1.3892 N   0  0  0  0  0  0  0  0  0  0  0  0
    0.4745    1.4695   -0.1436 C   0  0  0  0  0  0  0  0  0  0  0  0
    1.0358   -0.0232   -0.1424 C   0  0  0  0  0  0  0  0  0  0  0  0
    1.1853   -0.5597    0.9638 O   0  0  0  0  0  0  0  0  0  0  0  0
    1.2613   -0.4826   -1.2737 O   0  0  0  0  0  0  0  0  0  0  0  0
   -1.0584    1.4293   -0.0506 C   0  0  0  0  0  0  0  0  0  0  0  0
   -1.4979    0.8691    1.2990 C   0  0  0  0  0  0  0  0  0  0  0  0
   -1.6655    2.8148   -0.2786 C   0  0  0  0  0  0  0  0  0  0  0  0
    0.8305    1.3932   -2.0893 H   0  0  0  0  0  0  0  0  0  0  0  0
    1.8602    2.3702   -1.3152 H   0  0  0  0  0  0  0  0  0  0  0  0
    0.8771    2.0178    0.7167 H   0  0  0  0  0  0  0  0  0  0  0  0
   -1.4128    0.7622   -0.8464 H   0  0  0  0  0  0  0  0  0  0  0  0
   -1.2938    1.5915    2.0895 H   0  0  0  0  0  0  0  0  0  0  0  0
   -2.5653    0.6436    1.3013 H   0  0  0  0  0  0  0  0  0  0  0  0
   -0.9357   -0.0357    1.5162 H   0  0  0  0  0  0  0  0  0  0  0  0
   -1.3091    3.2172   -1.2226 H   0  0  0  0  0  0  0  0  0  0  0  0
   -2.7549    2.7616   -0.2956 H   0  0  0  0  0  0  0  0  0  0  0  0
   -1.3638    3.4915    0.5198 H   0  0  0  0  0  0  0  0  0  0  0  0
  1  2  1  0  0  0  0
  2  3  1  0  0  0  0
  3  4  2  0  0  0  0
  3  5  2  0  0  0  0
  2  6  1  0  0  0  0
  6  7  1  0  0  0  0
  6  8  1  0  0  0  0
  1  9  1  0  0  0  0
  1 10  1  0  0  0  0
  2 11  1  0  0  0  0
  6 12  1  0  0  0  0
  7 13  1  0  0  0  0
  7 14  1  0  0  0  0
  7 15  1  0  0  0  0
  8 16  1  0  0  0  0
  8 17  1  0  0  0  0
  8 18  1  0  0  0  0
M  CHG  1   1  -1
M  END
