 xtb: 6.7.1 (edcfbbe)
          12202401533D

  7  6  0     0  0            999 V2000
    0.9600    0.0369   -0.0859 F   0  0  0  0  0  0  0  0  0  0  0  0
    2.7246    0.0369   -0.0859 As  0  0  0  0  0  0  0  0  0  0  0  0
    2.7246   -1.6399   -0.6355 F   0  0  0  0  0  0  0  0  0  0  0  0
    2.7246    0.5865   -1.7628 F   0  0  0  0  0  0  0  0  0  0  0  0
    4.4892    0.0369   -0.0859 F   0  0  0  0  0  0  0  0  0  0  0  0
    2.7246    1.7138    0.4636 F   0  0  0  0  0  0  0  0  0  0  0  0
    2.7246   -0.5126    1.5909 F   0  0  0  0  0  0  0  0  0  0  0  0
  1  2  1  0  0  0  0
  2  3  1  0  0  0  0
  2  4  1  0  0  0  0
  2  5  1  0  0  0  0
  2  6  1  0  0  0  0
  2  7  1  0  0  0  0
M  CHG  1   1  -1
M  END
