9

C          0.96498       -0.03403        0.08241
O          0.55668        1.31468        0.03381
S          1.06726        2.28950        1.23896
O          0.51693        1.67035        2.44170
O          2.52303        2.23070        1.13853
O          0.48465        3.58300        0.89828
H          0.54673       -0.55293       -0.78456
H          0.59156       -0.52399        0.98632
H          2.05484       -0.11526        0.03578
