7

C          0.99901       -0.09629        0.02695
N         -0.26195       -0.09629        0.02695
C          2.51901       -0.09629        0.02695
C          3.02568        1.33023        0.16372
N          3.44601        2.51366        0.27718
C          3.02568       -0.92800        1.19398
N          3.44599       -1.61798        2.16213
