 xtb: 6.7.1 (edcfbbe)
          12202401533D

  7  6  0     0  0            999 V2000
    1.0122   -0.0534    0.1286 C   0  0  0  0  0  0  0  0  0  0  0  0
   -0.0778   -0.2194   -0.2277 N   0  0  0  0  0  0  0  0  0  0  0  0
    2.3143    0.1440    0.5538 C   0  0  0  0  0  0  0  0  0  0  0  0
    2.9664    1.3284    0.2586 C   0  0  0  0  0  0  0  0  0  0  0  0
    3.5119    2.3201    0.0113 N   0  0  0  0  0  0  0  0  0  0  0  0
    2.9639   -0.8427    1.2747 C   0  0  0  0  0  0  0  0  0  0  0  0
    3.5086   -1.6679    1.8785 N   0  0  0  0  0  0  0  0  0  0  0  0
  1  2  3  0  0  0  0
  1  3  1  0  0  0  0
  3  4  1  0  0  0  0
  4  5  3  0  0  0  0
  3  6  1  0  0  0  0
  6  7  3  0  0  0  0
M  CHG  1   1  -1
M  END
