 xtb: 6.7.1 (edcfbbe)
          12202401533D

  5  4  0     0  0            999 V2000
    0.8398    0.0187    0.0550 H   0  0  0  0  0  0  0  0  0  0  0  0
    2.0686    0.0188    0.0550 B   0  0  0  0  0  0  0  0  0  0  0  0
    2.4782   -0.7132    0.9531 H   0  0  0  0  0  0  0  0  0  0  0  0
    2.4782   -0.3930   -1.0279 H   0  0  0  0  0  0  0  0  0  0  0  0
    2.4782    1.1625    0.2399 H   0  0  0  0  0  0  0  0  0  0  0  0
  1  2  1  0  0  0  0
  2  3  1  0  0  0  0
  2  4  1  0  0  0  0
  2  5  1  0  0  0  0
M  CHG  1   1  -1
M  END
