32

C          1.40836        0.20047       -0.11761
C          0.53108        1.41777        0.18705
C          0.78697        2.50852       -0.85592
C         -0.96782        1.05963        0.21156
C         -1.35902        0.18003        1.37257
C         -1.53845        0.72735        2.64863
C         -1.89667       -0.08646        3.72645
C         -2.07355       -1.46622        3.55725
C         -1.90235       -2.00857        2.27661
C         -1.54967       -1.19546        1.19583
C         -2.43513       -2.36957        4.72544
C         -1.35804       -2.34584        5.81032
C         -3.82949       -2.02081        5.29039
O         -4.79147       -2.66041        4.76858
O         -3.86065       -1.17588        6.23292
H          1.12561       -0.26508       -1.06797
H          1.32832       -0.55546        0.66958
H          2.46288        0.48917       -0.18452
H          0.82819        1.81520        1.16605
H          0.51036        2.17099       -1.86061
H          0.20632        3.40859       -0.62788
H          1.84500        2.79109       -0.87245
H         -1.56785        1.97794        0.26852
H         -1.25708        0.58010       -0.73289
H         -1.41431        1.79364        2.81617
H         -2.05758        0.36022        4.70694
H         -2.05700       -3.07274        2.11609
H         -1.42891       -1.64803        0.21570
H         -2.49176       -3.40653        4.36544
H         -1.21790       -1.34874        6.24214
H         -1.62330       -3.02240        6.63033
H         -0.39160       -2.66803        5.40667
