 xtb: 6.7.1 (edcfbbe)
          12202401533D

 13 12  0     0  0            999 V2000
    1.2007   -0.1561   -0.0874 O   0  0  0  0  0  0  0  0  0  0  0  0
    2.3864    0.0604   -0.1990 C   0  0  0  0  0  0  0  0  0  0  0  0
    3.1183    0.6719   -0.9345 O   0  0  0  0  0  0  0  0  0  0  0  0
    3.2400   -0.7268    1.0731 C   0  0  0  0  0  0  0  0  0  0  0  0
    2.8252   -0.2003    2.4480 C   0  0  0  0  0  0  0  0  0  0  0  0
    1.3274   -0.3710    2.8027 C   0  0  0  0  0  0  0  0  0  0  0  0
    0.7849   -1.4996    2.3717 F   0  0  0  0  0  0  0  0  0  0  0  0
    1.1936   -0.3928    4.1495 F   0  0  0  0  0  0  0  0  0  0  0  0
    0.5896    0.6512    2.3917 F   0  0  0  0  0  0  0  0  0  0  0  0
    3.5318   -0.7914    3.4639 F   0  0  0  0  0  0  0  0  0  0  0  0
    3.1108    1.1195    2.5517 F   0  0  0  0  0  0  0  0  0  0  0  0
    3.0135   -2.0798    1.0546 F   0  0  0  0  0  0  0  0  0  0  0  0
    4.5976   -0.5963    0.9755 F   0  0  0  0  0  0  0  0  0  0  0  0
  1  2  2  0  0  0  0
  2  3  2  0  0  0  0
  2  4  1  0  0  0  0
  4  5  1  0  0  0  0
  5  6  1  0  0  0  0
  6  7  1  0  0  0  0
  6  8  1  0  0  0  0
  6  9  1  0  0  0  0
  5 10  1  0  0  0  0
  5 11  1  0  0  0  0
  4 12  1  0  0  0  0
  4 13  1  0  0  0  0
M  CHG  1   1  -1
M  END
