13

O          1.40148       -0.61211       -0.47567
C          2.39352       -0.00053        0.02063
O          2.75652        1.19118       -0.20163
C          3.19904       -0.77204        1.07083
C          2.85685       -0.22105        2.42367
C          1.37084       -0.28680        2.73860
F          0.86361       -1.53900        2.63566
F          1.15729        0.08598        4.03816
F          0.59864        0.53651        2.00129
F          3.53404       -0.96632        3.37162
F          3.32699        1.04812        2.60896
F          2.92118       -2.11061        1.01029
F          4.53989       -0.66440        0.81902
