 xtb: 6.7.1 (edcfbbe)
          12202401543D

117120  0     0  0            999 V2000
    0.5547   -3.0751    0.1077 F   0  0  0  0  0  0  0  0  0  0  0  0
    1.6444   -2.3581   -0.1470 C   0  0  0  0  0  0  0  0  0  0  0  0
    1.2575   -1.2163   -0.7027 F   0  0  0  0  0  0  0  0  0  0  0  0
    2.2296   -2.0815    1.0116 F   0  0  0  0  0  0  0  0  0  0  0  0
    2.5939   -3.1495   -1.0990 C   0  0  0  0  0  0  0  0  0  0  0  0
    2.6878   -4.4124   -0.6526 F   0  0  0  0  0  0  0  0  0  0  0  0
    2.0219   -3.1942   -2.3132 F   0  0  0  0  0  0  0  0  0  0  0  0
    4.0181   -2.5169   -1.1686 C   0  0  0  0  0  0  0  0  0  0  0  0
    3.9036   -1.1774   -1.2013 F   0  0  0  0  0  0  0  0  0  0  0  0
    4.6635   -2.8318   -0.0352 F   0  0  0  0  0  0  0  0  0  0  0  0
    4.8216   -2.9921   -2.4223 C   0  0  0  0  0  0  0  0  0  0  0  0
    4.6045   -4.3056   -2.6113 F   0  0  0  0  0  0  0  0  0  0  0  0
    4.3222   -2.3513   -3.4911 F   0  0  0  0  0  0  0  0  0  0  0  0
    6.3546   -2.7439   -2.2712 C   0  0  0  0  0  0  0  0  0  0  0  0
    6.5543   -1.5526   -1.6736 F   0  0  0  0  0  0  0  0  0  0  0  0
    6.8279   -3.6841   -1.4294 F   0  0  0  0  0  0  0  0  0  0  0  0
    7.1518   -2.7795   -3.6206 C   0  0  0  0  0  0  0  0  0  0  0  0
    6.7140   -3.8576   -4.3210 F   0  0  0  0  0  0  0  0  0  0  0  0
    6.7534   -1.6957   -4.3360 F   0  0  0  0  0  0  0  0  0  0  0  0
    8.6282   -2.7999   -3.3626 C   0  0  0  0  0  0  0  0  0  0  0  0
    9.2932   -4.0129   -3.2228 C   0  0  0  0  0  0  0  0  0  0  0  0
   10.6418   -4.0131   -2.9296 C   0  0  0  0  0  0  0  0  0  0  0  0
   11.3661   -2.8328   -2.7489 C   0  0  0  0  0  0  0  0  0  0  0  0
   10.6724   -1.6364   -2.9246 C   0  0  0  0  0  0  0  0  0  0  0  0
    9.3223   -1.6054   -3.2182 C   0  0  0  0  0  0  0  0  0  0  0  0
   12.9570   -2.9017   -2.4432 B   0  0  0  0  0  0  0  0  0  0  0  0
   13.3145   -3.8952   -1.2105 C   0  0  0  0  0  0  0  0  0  0  0  0
   14.6379   -4.2766   -0.9794 C   0  0  0  0  0  0  0  0  0  0  0  0
   15.0039   -5.0544    0.1004 C   0  0  0  0  0  0  0  0  0  0  0  0
   14.0306   -5.4619    1.0055 C   0  0  0  0  0  0  0  0  0  0  0  0
   12.7059   -5.0882    0.8174 C   0  0  0  0  0  0  0  0  0  0  0  0
   12.3687   -4.3112   -0.2742 C   0  0  0  0  0  0  0  0  0  0  0  0
   14.3995   -6.3336    2.1677 C   0  0  0  0  0  0  0  0  0  0  0  0
   15.6780   -6.1528    2.5892 F   0  0  0  0  0  0  0  0  0  0  0  0
   13.6227   -6.1121    3.2600 F   0  0  0  0  0  0  0  0  0  0  0  0
   14.2398   -7.8495    1.8036 C   0  0  0  0  0  0  0  0  0  0  0  0
   12.9326   -8.1275    1.6323 F   0  0  0  0  0  0  0  0  0  0  0  0
   14.8487   -8.1086    0.6293 F   0  0  0  0  0  0  0  0  0  0  0  0
   14.8399   -8.8291    2.8598 C   0  0  0  0  0  0  0  0  0  0  0  0
   16.1773   -8.8595    2.7223 F   0  0  0  0  0  0  0  0  0  0  0  0
   14.5812   -8.4214    4.1124 F   0  0  0  0  0  0  0  0  0  0  0  0
   14.2787  -10.2799    2.7101 C   0  0  0  0  0  0  0  0  0  0  0  0
   13.0329  -10.3247    3.2142 F   0  0  0  0  0  0  0  0  0  0  0  0
   14.1969  -10.6324    1.4178 F   0  0  0  0  0  0  0  0  0  0  0  0
   15.1629  -11.3383    3.4394 C   0  0  0  0  0  0  0  0  0  0  0  0
   16.2466  -11.6050    2.6924 F   0  0  0  0  0  0  0  0  0  0  0  0
   15.5958  -10.8776    4.6241 F   0  0  0  0  0  0  0  0  0  0  0  0
   14.3954  -12.6730    3.6916 C   0  0  0  0  0  0  0  0  0  0  0  0
   13.5115  -12.5358    4.6722 F   0  0  0  0  0  0  0  0  0  0  0  0
   13.7535  -13.0829    2.6047 F   0  0  0  0  0  0  0  0  0  0  0  0
   15.2489  -13.6285    4.0456 F   0  0  0  0  0  0  0  0  0  0  0  0
   13.5876   -3.3845   -3.8568 C   0  0  0  0  0  0  0  0  0  0  0  0
   14.0441   -4.6823   -4.0840 C   0  0  0  0  0  0  0  0  0  0  0  0
   14.5369   -5.0846   -5.3106 C   0  0  0  0  0  0  0  0  0  0  0  0
   14.5782   -4.1760   -6.3607 C   0  0  0  0  0  0  0  0  0  0  0  0
   14.0959   -2.8843   -6.1824 C   0  0  0  0  0  0  0  0  0  0  0  0
   13.6106   -2.5101   -4.9455 C   0  0  0  0  0  0  0  0  0  0  0  0
   15.1115   -4.6019   -7.6952 C   0  0  0  0  0  0  0  0  0  0  0  0
   15.6324   -3.5700   -8.4084 F   0  0  0  0  0  0  0  0  0  0  0  0
   16.1141   -5.5152   -7.5971 F   0  0  0  0  0  0  0  0  0  0  0  0
   13.9893   -5.2375   -8.5854 C   0  0  0  0  0  0  0  0  0  0  0  0
   13.2887   -6.1444   -7.8771 F   0  0  0  0  0  0  0  0  0  0  0  0
   13.1211   -4.2751   -8.9532 F   0  0  0  0  0  0  0  0  0  0  0  0
   14.5265   -5.9633   -9.8585 C   0  0  0  0  0  0  0  0  0  0  0  0
   15.5200   -5.2699  -10.4373 F   0  0  0  0  0  0  0  0  0  0  0  0
   15.0329   -7.1571   -9.5019 F   0  0  0  0  0  0  0  0  0  0  0  0
   13.4155   -6.1831  -10.9352 C   0  0  0  0  0  0  0  0  0  0  0  0
   12.2615   -6.5632  -10.3663 F   0  0  0  0  0  0  0  0  0  0  0  0
   13.1820   -5.0215  -11.5712 F   0  0  0  0  0  0  0  0  0  0  0  0
   13.8132   -7.2687  -11.9831 C   0  0  0  0  0  0  0  0  0  0  0  0
   15.1080   -7.1642  -12.3243 F   0  0  0  0  0  0  0  0  0  0  0  0
   13.6361   -8.4887  -11.4504 F   0  0  0  0  0  0  0  0  0  0  0  0
   12.9623   -7.1702  -13.2868 C   0  0  0  0  0  0  0  0  0  0  0  0
   11.6677   -7.0499  -13.0210 F   0  0  0  0  0  0  0  0  0  0  0  0
   13.3368   -6.1297  -14.0214 F   0  0  0  0  0  0  0  0  0  0  0  0
   13.1279   -8.2657  -14.0212 F   0  0  0  0  0  0  0  0  0  0  0  0
   13.5731   -1.4938   -1.9224 C   0  0  0  0  0  0  0  0  0  0  0  0
   14.7696   -0.9638   -2.4036 C   0  0  0  0  0  0  0  0  0  0  0  0
   15.3312    0.1841   -1.8778 C   0  0  0  0  0  0  0  0  0  0  0  0
   14.6988    0.8320   -0.8248 C   0  0  0  0  0  0  0  0  0  0  0  0
   13.5075    0.3290   -0.3133 C   0  0  0  0  0  0  0  0  0  0  0  0
   12.9699   -0.8191   -0.8585 C   0  0  0  0  0  0  0  0  0  0  0  0
   15.2853    2.0855   -0.2492 C   0  0  0  0  0  0  0  0  0  0  0  0
   15.0725    2.2003    1.0882 F   0  0  0  0  0  0  0  0  0  0  0  0
   16.6315    2.1667   -0.4100 F   0  0  0  0  0  0  0  0  0  0  0  0
   14.6600    3.3627   -0.9083 C   0  0  0  0  0  0  0  0  0  0  0  0
   14.6367    3.2305   -2.2494 F   0  0  0  0  0  0  0  0  0  0  0  0
   13.3791    3.4848   -0.5089 F   0  0  0  0  0  0  0  0  0  0  0  0
   15.4297    4.6820   -0.5880 C   0  0  0  0  0  0  0  0  0  0  0  0
   15.8387    4.7148    0.6901 F   0  0  0  0  0  0  0  0  0  0  0  0
   16.5308    4.7449   -1.3575 F   0  0  0  0  0  0  0  0  0  0  0  0
   14.5605    5.9567   -0.8364 C   0  0  0  0  0  0  0  0  0  0  0  0
   13.8360    5.8349   -1.9593 F   0  0  0  0  0  0  0  0  0  0  0  0
   13.6940    6.1040    0.1813 F   0  0  0  0  0  0  0  0  0  0  0  0
   15.4259    7.2488   -0.9632 C   0  0  0  0  0  0  0  0  0  0  0  0
   16.4392    7.2449   -0.0820 F   0  0  0  0  0  0  0  0  0  0  0  0
   15.9635    7.3053   -2.1926 F   0  0  0  0  0  0  0  0  0  0  0  0
   14.5888    8.5443   -0.7288 C   0  0  0  0  0  0  0  0  0  0  0  0
   13.4466    8.5200   -1.4045 F   0  0  0  0  0  0  0  0  0  0  0  0
   14.3094    8.7028    0.5591 F   0  0  0  0  0  0  0  0  0  0  0  0
   15.2767    9.6088   -1.1291 F   0  0  0  0  0  0  0  0  0  0  0  0
    8.7512   -4.9389   -3.3476 H   0  0  0  0  0  0  0  0  0  0  0  0
   11.1532   -4.9591   -2.8319 H   0  0  0  0  0  0  0  0  0  0  0  0
   11.1995   -0.6996   -2.8215 H   0  0  0  0  0  0  0  0  0  0  0  0
    8.8027   -0.6658   -3.3380 H   0  0  0  0  0  0  0  0  0  0  0  0
   15.4029   -3.9496   -1.6679 H   0  0  0  0  0  0  0  0  0  0  0  0
   16.0336   -5.3417    0.2553 H   0  0  0  0  0  0  0  0  0  0  0  0
   11.9543   -5.4018    1.5272 H   0  0  0  0  0  0  0  0  0  0  0  0
   11.3358   -4.0229   -0.4014 H   0  0  0  0  0  0  0  0  0  0  0  0
   14.0190   -5.4005   -3.2780 H   0  0  0  0  0  0  0  0  0  0  0  0
   14.8972   -6.0922   -5.4593 H   0  0  0  0  0  0  0  0  0  0  0  0
   14.1124   -2.1872   -7.0074 H   0  0  0  0  0  0  0  0  0  0  0  0
   13.2362   -1.5056   -4.8154 H   0  0  0  0  0  0  0  0  0  0  0  0
   15.2801   -1.4627   -3.2139 H   0  0  0  0  0  0  0  0  0  0  0  0
   16.2584    0.5764   -2.2694 H   0  0  0  0  0  0  0  0  0  0  0  0
   13.0227    0.8331    0.5101 H   0  0  0  0  0  0  0  0  0  0  0  0
   12.0541   -1.2127   -0.4431 H   0  0  0  0  0  0  0  0  0  0  0  0
  1  2  1  0  0  0  0
  2  3  1  0  0  0  0
  2  4  1  0  0  0  0
  2  5  1  0  0  0  0
  5  6  1  0  0  0  0
  5  7  1  0  0  0  0
  5  8  1  0  0  0  0
  8  9  1  0  0  0  0
  8 10  1  0  0  0  0
  8 11  1  0  0  0  0
 11 12  1  0  0  0  0
 11 13  1  0  0  0  0
 11 14  1  0  0  0  0
 14 15  1  0  0  0  0
 14 16  1  0  0  0  0
 14 17  1  0  0  0  0
 17 18  1  0  0  0  0
 17 19  1  0  0  0  0
 17 20  1  0  0  0  0
 20 21  4  0  0  0  0
 21 22  4  0  0  0  0
 22 23  4  0  0  0  0
 23 24  4  0  0  0  0
 20 25  4  0  0  0  0
 24 25  4  0  0  0  0
 23 26  1  0  0  0  0
 26 27  1  0  0  0  0
 27 28  4  0  0  0  0
 28 29  4  0  0  0  0
 29 30  4  0  0  0  0
 30 31  4  0  0  0  0
 27 32  4  0  0  0  0
 31 32  4  0  0  0  0
 30 33  1  0  0  0  0
 33 34  1  0  0  0  0
 33 35  1  0  0  0  0
 33 36  1  0  0  0  0
 36 37  1  0  0  0  0
 36 38  1  0  0  0  0
 36 39  1  0  0  0  0
 39 40  1  0  0  0  0
 39 41  1  0  0  0  0
 39 42  1  0  0  0  0
 42 43  1  0  0  0  0
 42 44  1  0  0  0  0
 42 45  1  0  0  0  0
 45 46  1  0  0  0  0
 45 47  1  0  0  0  0
 45 48  1  0  0  0  0
 48 49  1  0  0  0  0
 48 50  1  0  0  0  0
 48 51  1  0  0  0  0
 26 52  1  0  0  0  0
 52 53  4  0  0  0  0
 53 54  4  0  0  0  0
 54 55  4  0  0  0  0
 55 56  4  0  0  0  0
 52 57  4  0  0  0  0
 56 57  4  0  0  0  0
 55 58  1  0  0  0  0
 58 59  1  0  0  0  0
 58 60  1  0  0  0  0
 58 61  1  0  0  0  0
 61 62  1  0  0  0  0
 61 63  1  0  0  0  0
 61 64  1  0  0  0  0
 64 65  1  0  0  0  0
 64 66  1  0  0  0  0
 64 67  1  0  0  0  0
 67 68  1  0  0  0  0
 67 69  1  0  0  0  0
 67 70  1  0  0  0  0
 70 71  1  0  0  0  0
 70 72  1  0  0  0  0
 70 73  1  0  0  0  0
 73 74  1  0  0  0  0
 73 75  1  0  0  0  0
 73 76  1  0  0  0  0
 26 77  1  0  0  0  0
 77 78  4  0  0  0  0
 78 79  4  0  0  0  0
 79 80  4  0  0  0  0
 80 81  4  0  0  0  0
 77 82  4  0  0  0  0
 81 82  4  0  0  0  0
 80 83  1  0  0  0  0
 83 84  1  0  0  0  0
 83 85  1  0  0  0  0
 83 86  1  0  0  0  0
 86 87  1  0  0  0  0
 86 88  1  0  0  0  0
 86 89  1  0  0  0  0
 89 90  1  0  0  0  0
 89 91  1  0  0  0  0
 89 92  1  0  0  0  0
 92 93  1  0  0  0  0
 92 94  1  0  0  0  0
 92 95  1  0  0  0  0
 95 96  1  0  0  0  0
 95 97  1  0  0  0  0
 95 98  1  0  0  0  0
 98 99  1  0  0  0  0
 98100  1  0  0  0  0
 98101  1  0  0  0  0
 21102  1  0  0  0  0
 22103  1  0  0  0  0
 24104  1  0  0  0  0
 25105  1  0  0  0  0
 28106  1  0  0  0  0
 29107  1  0  0  0  0
 31108  1  0  0  0  0
 32109  1  0  0  0  0
 53110  1  0  0  0  0
 54111  1  0  0  0  0
 56112  1  0  0  0  0
 57113  1  0  0  0  0
 78114  1  0  0  0  0
 79115  1  0  0  0  0
 81116  1  0  0  0  0
 82117  1  0  0  0  0
M  CHG  1   1  -1
M  END
