117

F          0.97359       -0.09525       -0.01514
C          2.30359       -0.09525       -0.01514
F          2.74692        1.09145       -0.42022
F          2.74692       -0.33780        1.21511
C          2.81025       -1.17429       -0.95820
F          2.36691       -2.36100       -0.55313
F          2.36691       -0.93175       -2.18846
C          4.33025       -1.17429       -0.95820
F          4.77358        0.01241       -1.36328
F          4.77358       -1.41684        0.27205
C          4.83691       -2.25334       -1.90126
F          4.39357       -3.44004       -1.49619
F          4.39357       -2.01079       -3.13152
C          6.35691       -2.25334       -1.90126
F          6.80024       -1.06663       -2.30634
F          6.80024       -2.49588       -0.67101
C          6.86357       -3.33238       -2.84432
F          6.42023       -4.51908       -2.43925
F          6.42023       -3.08983       -4.07458
C          8.38357       -3.33238       -2.84432
C          9.06303       -4.53679       -2.92373
C         10.44209       -4.43792       -2.62296
C         11.12913       -3.31010       -2.62050
C         10.39970       -2.15369       -2.61086
C          9.03494       -2.17775       -2.76821
B         12.72907       -3.29759       -2.62837
C         13.27474       -4.05443       -1.32859
C         14.19141       -3.39626       -0.52543
C         14.95179       -4.25713        0.30087
C         14.62278       -5.50357        0.58753
C         13.66205       -6.07531       -0.19959
C         12.96685       -5.32924       -1.12045
C         15.27694       -6.26180        1.73101
F         16.58764       -6.33943        1.51902
F         15.04995       -5.62178        2.87458
C         14.69259       -7.66277        1.80983
F         13.38189       -7.58514        2.02182
F         14.91958       -8.30279        0.66626
C         15.34675       -8.42100        2.95331
F         16.65746       -8.49863        2.74132
F         15.11976       -7.78098        4.09688
C         14.76240       -9.82197        3.03213
F         13.45170       -9.74435        3.24412
F         14.98939      -10.46199        1.88857
C         15.41657      -10.58021        4.17561
F         16.72727      -10.65783        3.96363
F         15.18957       -9.94018        5.31918
C         14.83221      -11.98118        4.25443
F         13.52151      -11.90355        4.46642
F         15.05920      -12.62120        3.11087
F         15.40460      -12.64463        5.25498
C         13.26178       -4.04083       -3.94131
C         13.94100       -5.23008       -3.73418
C         14.51834       -5.77225       -4.90669
C         14.17719       -5.43139       -6.13610
C         13.44827       -4.28221       -6.26844
C         12.96051       -3.62383       -5.16548
C         14.57354       -6.27142       -7.33928
F         15.89945       -6.35021       -7.40757
F         14.06266       -7.49306       -7.21473
C         14.03842       -5.62526       -8.60677
F         12.71252       -5.54647       -8.53848
F         14.54930       -4.40362       -8.73132
C         14.43478       -6.46529       -9.80995
F         15.76069       -6.54407       -9.87824
F         13.92390       -7.68692       -9.68540
C         13.89966       -5.81912      -11.07744
F         12.57376       -5.74034      -11.00915
F         14.41054       -4.59749      -11.20199
C         14.29602       -6.65916      -12.28062
F         15.62192       -6.73794      -12.34891
F         13.78514       -7.88079      -12.15607
C         13.76090       -6.01299      -13.54811
F         12.43499       -5.93421      -13.47982
F         14.27178       -4.79136      -13.67266
F         14.10771       -6.74802      -14.60089
C         13.25061       -1.78499       -2.62308
C         14.03049       -1.35199       -3.68274
C         14.67196       -0.11187       -3.45325
C         14.32043        0.75137       -2.51770
C         13.49351        0.28077       -1.53577
C         12.93190       -0.97010       -1.62427
C         14.80884        2.19070       -2.53175
F         16.13735        2.20866       -2.47162
F         14.40771        2.78405       -3.65244
C         14.23736        2.93137       -1.33375
F         12.90884        2.91341       -1.39388
F         14.63848        2.33802       -0.21307
C         14.72576        4.37070       -1.34780
F         16.05428        4.38867       -1.28767
F         14.32464        4.96405       -2.46848
C         14.15429        5.11137       -0.14980
F         12.82577        5.09341       -0.20993
F         14.55541        4.51802        0.97089
C         14.64269        6.55070       -0.16385
F         15.97121        6.56867       -0.10371
F         14.24157        7.14406       -1.28453
C         14.07121        7.29138        1.03416
F         12.74270        7.27341        0.97402
F         14.47234        6.69802        2.15484
F         14.49857        8.55079        1.02186
H          8.58812       -5.45834       -3.18848
H         10.96464       -5.33966       -2.38067
H         10.89883       -1.21649       -2.47889
H          8.49210       -1.25775       -2.82996
H         14.31346       -2.33325       -0.52948
H         15.85627       -3.87142        0.72281
H         13.44852       -7.11875       -0.09700
H         12.17015       -5.77956       -1.67486
H         14.02177       -5.69646       -2.77456
H         15.28465       -6.50971       -4.78908
H         13.25489       -3.88996       -7.24499
H         12.33222       -2.76733       -5.29416
H         14.13808       -1.90512       -4.59234
H         15.49941        0.14432       -4.08141
H         13.28067        0.89543       -0.68619
H         12.23138       -1.29046       -0.88162
