 xtb: 6.7.1 (edcfbbe)
          12202401543D

 15 14  0     0  0            999 V2000
    1.0575    0.0442    0.1345 C   0  0  0  0  0  0  0  0  0  0  0  0
    0.5379   -1.3879    0.2250 C   0  0  0  0  0  0  0  0  0  0  0  0
    1.0127   -2.0647    1.5274 C   0  0  0  0  0  0  0  0  0  0  0  0
    0.7949   -1.2734    2.7031 C   0  0  0  0  0  0  0  0  0  0  0  0
    0.6986   -0.6671    3.6716 N   0  0  0  0  0  0  0  0  0  0  0  0
   -1.1102   -1.4914    0.0432 B   0  0  0  0  0  0  0  0  0  0  0  0
   -1.4832   -1.0757   -1.2479 F   0  0  0  0  0  0  0  0  0  0  0  0
   -1.5198   -2.8354    0.1928 F   0  0  0  0  0  0  0  0  0  0  0  0
   -1.8145   -0.7202    0.9718 F   0  0  0  0  0  0  0  0  0  0  0  0
    0.6255    0.6458    0.9323 H   0  0  0  0  0  0  0  0  0  0  0  0
    0.7578    0.4774   -0.8175 H   0  0  0  0  0  0  0  0  0  0  0  0
    2.1487    0.0898    0.2146 H   0  0  0  0  0  0  0  0  0  0  0  0
    0.9781   -1.9666   -0.5984 H   0  0  0  0  0  0  0  0  0  0  0  0
    0.4699   -3.0070    1.6453 H   0  0  0  0  0  0  0  0  0  0  0  0
    2.0909   -2.2789    1.4856 H   0  0  0  0  0  0  0  0  0  0  0  0
  1  2  1  0  0  0  0
  2  3  1  0  0  0  0
  3  4  1  0  0  0  0
  4  5  3  0  0  0  0
  2  6  1  0  0  0  0
  6  7  1  0  0  0  0
  6  8  1  0  0  0  0
  6  9  1  0  0  0  0
  1 10  1  0  0  0  0
  1 11  1  0  0  0  0
  1 12  1  0  0  0  0
  2 13  1  0  0  0  0
  3 14  1  0  0  0  0
  3 15  1  0  0  0  0
M  CHG  1   1  -1
M  END
