13

N          1.01479        0.06735       -0.09085
C          2.17611       -0.01047       -0.08767
C          3.69722       -0.06680       -0.08343
N          4.47743       -1.18103       -0.07736
C          5.78719       -0.77731       -0.07374
N          5.81507        0.59251       -0.07907
C          4.52915        1.03634       -0.08453
C          4.05834        2.48389       -0.09024
N          3.66504        3.57935       -0.09453
C          7.01156       -1.71058       -0.06438
F          7.04379       -2.53343        1.02946
F          7.05856       -2.53607       -1.15566
F          8.20944       -1.04759       -0.05698
