 xtb: 6.7.1 (edcfbbe)
          12202401543D

 23 23  0     0  0            999 V2000
    1.0602    0.0430    0.1240 C   0  0  0  0  0  0  0  0  0  0  0  0
    0.2604   -0.7629   -0.9350 C   0  0  0  0  0  0  0  0  0  0  0  0
   -0.9433   -0.3805   -1.3609 C   0  0  0  0  0  0  0  0  0  0  0  0
   -1.7879   -1.0234   -2.3527 C   0  0  0  0  0  0  0  0  0  0  0  0
   -1.4388   -2.2414   -2.9491 C   0  0  0  0  0  0  0  0  0  0  0  0
   -2.2560   -2.8328   -3.8881 C   0  0  0  0  0  0  0  0  0  0  0  0
   -1.9994   -4.0394   -4.5332 O   0  0  0  0  0  0  0  0  0  0  0  0
   -0.8199   -4.7161   -4.1919 C   0  0  0  0  0  0  0  0  0  0  0  0
   -3.4580   -2.2180   -4.2645 C   0  0  0  0  0  0  0  0  0  0  0  0
   -4.2722   -2.8071   -5.2013 O   0  0  0  0  0  0  0  0  0  0  0  0
   -3.8138   -1.0149   -3.6807 C   0  0  0  0  0  0  0  0  0  0  0  0
   -2.9903   -0.4292   -2.7375 C   0  0  0  0  0  0  0  0  0  0  0  0
    0.4731    1.0069    0.6360 O   0  0  0  0  0  0  0  0  0  0  0  0
    2.2081   -0.3827    0.3315 O   0  0  0  0  0  0  0  0  0  0  0  0
    0.7707   -1.6426   -1.3104 H   0  0  0  0  0  0  0  0  0  0  0  0
   -1.3420    0.5250   -0.9165 H   0  0  0  0  0  0  0  0  0  0  0  0
   -0.5141   -2.7096   -2.6545 H   0  0  0  0  0  0  0  0  0  0  0  0
    0.0682   -4.1207   -4.4281 H   0  0  0  0  0  0  0  0  0  0  0  0
   -0.8023   -4.9820   -3.1297 H   0  0  0  0  0  0  0  0  0  0  0  0
   -0.8146   -5.6264   -4.7923 H   0  0  0  0  0  0  0  0  0  0  0  0
   -3.8339   -3.6259   -5.4669 H   0  0  0  0  0  0  0  0  0  0  0  0
   -4.7427   -0.5529   -3.9791 H   0  0  0  0  0  0  0  0  0  0  0  0
   -3.2794    0.5097   -2.2884 H   0  0  0  0  0  0  0  0  0  0  0  0
  1  2  1  0  0  0  0
  2  3  2  0  0  0  0
  3  4  1  0  0  0  0
  4  5  4  0  0  0  0
  5  6  4  0  0  0  0
  6  7  1  0  0  0  0
  7  8  1  0  0  0  0
  6  9  4  0  0  0  0
  9 10  1  0  0  0  0
  9 11  4  0  0  0  0
  4 12  4  0  0  0  0
 11 12  4  0  0  0  0
  1 13  2  0  0  0  0
  1 14  2  0  0  0  0
  2 15  1  0  0  0  0
  3 16  1  0  0  0  0
  5 17  1  0  0  0  0
  8 18  1  0  0  0  0
  8 19  1  0  0  0  0
  8 20  1  0  0  0  0
 10 21  1  0  0  0  0
 11 22  1  0  0  0  0
 12 23  1  0  0  0  0
M  CHG  1   1  -1
M  END
