 xtb: 6.7.1 (edcfbbe)
          12202401543D

 33 32  0     0  0            999 V2000
    1.0244    0.8785   -1.3567 F   0  0  0  0  0  0  0  0  0  0  0  0
    2.2504    0.5887   -0.9143 C   0  0  0  0  0  0  0  0  0  0  0  0
    2.1301    0.2198    0.3566 F   0  0  0  0  0  0  0  0  0  0  0  0
    2.6834   -0.4553   -1.6098 F   0  0  0  0  0  0  0  0  0  0  0  0
    3.1806    1.8293   -1.0610 C   0  0  0  0  0  0  0  0  0  0  0  0
    2.9737    2.3628   -2.2772 F   0  0  0  0  0  0  0  0  0  0  0  0
    2.7789    2.7410   -0.1564 F   0  0  0  0  0  0  0  0  0  0  0  0
    4.6934    1.4757   -0.8785 C   0  0  0  0  0  0  0  0  0  0  0  0
    4.7902    0.5729    0.1175 F   0  0  0  0  0  0  0  0  0  0  0  0
    5.0885    0.8542   -2.0040 F   0  0  0  0  0  0  0  0  0  0  0  0
    5.5922    2.6833   -0.5708 C   0  0  0  0  0  0  0  0  0  0  0  0
    5.1855    3.7537   -1.2858 F   0  0  0  0  0  0  0  0  0  0  0  0
    5.4312    3.0065    0.7296 F   0  0  0  0  0  0  0  0  0  0  0  0
    7.4453    2.3257   -0.9475 S   0  0  0  0  0  0  0  0  0  0  0  0
    7.6522    1.0600   -0.3232 O   0  0  0  0  0  0  0  0  0  0  0  0
    7.5185    2.4076   -2.3673 O   0  0  0  0  0  0  0  0  0  0  0  0
    8.0103    3.5735   -0.1530 N   0  0  0  0  0  0  0  0  0  0  0  0
    9.5233    3.8499   -0.4434 S   0  0  0  0  0  0  0  0  0  0  0  0
   10.1961    4.5029    0.6332 O   0  0  0  0  0  0  0  0  0  0  0  0
   10.1994    2.7932   -1.1252 O   0  0  0  0  0  0  0  0  0  0  0  0
    9.4448    5.2673   -1.7543 C   0  0  0  0  0  0  0  0  0  0  0  0
    8.4059    5.1179   -2.5974 F   0  0  0  0  0  0  0  0  0  0  0  0
    9.2404    6.4426   -1.1126 F   0  0  0  0  0  0  0  0  0  0  0  0
   10.7454    5.3440   -2.5636 C   0  0  0  0  0  0  0  0  0  0  0  0
   11.8108    5.1447   -1.7632 F   0  0  0  0  0  0  0  0  0  0  0  0
   10.7711    4.3781   -3.4982 F   0  0  0  0  0  0  0  0  0  0  0  0
   10.9779    6.7162   -3.2795 C   0  0  0  0  0  0  0  0  0  0  0  0
    9.8410    7.1903   -3.8190 F   0  0  0  0  0  0  0  0  0  0  0  0
   11.4023    7.6328   -2.3905 F   0  0  0  0  0  0  0  0  0  0  0  0
   12.0360    6.6303   -4.4181 C   0  0  0  0  0  0  0  0  0  0  0  0
   13.1347    5.9886   -4.0398 F   0  0  0  0  0  0  0  0  0  0  0  0
   11.5489    6.0239   -5.4940 F   0  0  0  0  0  0  0  0  0  0  0  0
   12.4064    7.8580   -4.7936 F   0  0  0  0  0  0  0  0  0  0  0  0
  1  2  1  0  0  0  0
  2  3  1  0  0  0  0
  2  4  1  0  0  0  0
  2  5  1  0  0  0  0
  5  6  1  0  0  0  0
  5  7  1  0  0  0  0
  5  8  1  0  0  0  0
  8  9  1  0  0  0  0
  8 10  1  0  0  0  0
  8 11  1  0  0  0  0
 11 12  1  0  0  0  0
 11 13  1  0  0  0  0
 11 14  1  0  0  0  0
 14 15  2  0  0  0  0
 14 16  2  0  0  0  0
 14 17  1  0  0  0  0
 17 18  1  0  0  0  0
 18 19  2  0  0  0  0
 18 20  2  0  0  0  0
 18 21  1  0  0  0  0
 21 22  1  0  0  0  0
 21 23  1  0  0  0  0
 21 24  1  0  0  0  0
 24 25  1  0  0  0  0
 24 26  1  0  0  0  0
 24 27  1  0  0  0  0
 27 28  1  0  0  0  0
 27 29  1  0  0  0  0
 27 30  1  0  0  0  0
 30 31  1  0  0  0  0
 30 32  1  0  0  0  0
 30 33  1  0  0  0  0
M  CHG  1   1  -1
M  END
