 xtb: 6.7.1 (edcfbbe)
          12202401543D

  5  4  0     0  0            999 V2000
    1.3358   -0.0512   -0.5712 O   0  0  0  0  0  0  0  0  0  0  0  0
    2.6507    0.0896    0.0568 P   0  0  0  0  0  0  0  0  0  0  0  0
    2.6682    1.5058    0.9323 F   0  0  0  0  0  0  0  0  0  0  0  0
    2.6682   -0.8176    1.4529 F   0  0  0  0  0  0  0  0  0  0  0  0
    3.9455   -0.0597   -0.6095 O   0  0  0  0  0  0  0  0  0  0  0  0
  1  2  2  0  0  0  0
  2  3  1  0  0  0  0
  2  4  1  0  0  0  0
  2  5  2  0  0  0  0
M  CHG  1   1  -1
M  END
