15

C          1.07974       -0.07132       -0.23048
S          0.51275       -1.45148       -1.20495
O          1.26852       -2.56642       -0.63464
O         -0.91939       -1.46299       -0.92460
N          0.99529       -0.93769       -2.62006
S          0.49707       -1.78415       -3.86312
C          0.97309       -3.45938       -3.48498
O         -0.94302       -1.86003       -4.09396
O          1.26904       -1.50813       -5.07883
H          0.83070       -0.26595        0.81587
H          0.57578        0.83965       -0.56199
H          2.16315        0.02618       -0.33441
H          0.31843       -3.87372       -2.71673
H          0.85699       -4.05266       -4.39642
H          2.02071       -3.48206       -3.17721
