 xtb: 6.7.1 (edcfbbe)
          12202401543D

 17 16  0     0  0            999 V2000
    1.1812    0.0945    0.0028 C   0  0  0  0  0  0  0  0  0  0  0  0
    0.4565    0.3787    1.2988 C   0  0  0  0  0  0  0  0  0  0  0  0
    0.9506    1.6379    2.0109 C   0  0  0  0  0  0  0  0  0  0  0  0
    0.5303    2.9067    1.2829 C   0  0  0  0  0  0  0  0  0  0  0  0
    0.4136    0.9797   -1.4256 S   0  0  0  0  0  0  0  0  0  0  0  0
    0.5713    0.0370   -2.5337 O   0  0  0  0  0  0  0  0  0  0  0  0
   -0.9812    1.2192   -1.0598 O   0  0  0  0  0  0  0  0  0  0  0  0
    1.1963    2.2061   -1.6089 O   0  0  0  0  0  0  0  0  0  0  0  0
    1.1027   -0.9499   -0.2835 H   0  0  0  0  0  0  0  0  0  0  0  0
    2.2240    0.3969    0.0142 H   0  0  0  0  0  0  0  0  0  0  0  0
   -0.5990    0.5026    1.0447 H   0  0  0  0  0  0  0  0  0  0  0  0
    0.5535   -0.4760    1.9820 H   0  0  0  0  0  0  0  0  0  0  0  0
    0.5512    1.6493    3.0337 H   0  0  0  0  0  0  0  0  0  0  0  0
    2.0425    1.6026    2.0883 H   0  0  0  0  0  0  0  0  0  0  0  0
   -0.5537    2.9910    1.2753 H   0  0  0  0  0  0  0  0  0  0  0  0
    0.9496    3.7887    1.7690 H   0  0  0  0  0  0  0  0  0  0  0  0
    0.8620    2.8693    0.2470 H   0  0  0  0  0  0  0  0  0  0  0  0
  1  2  1  0  0  0  0
  2  3  1  0  0  0  0
  3  4  1  0  0  0  0
  1  5  1  0  0  0  0
  5  6  2  0  0  0  0
  5  7  2  0  0  0  0
  5  8  2  0  0  0  0
  1  9  1  0  0  0  0
  1 10  1  0  0  0  0
  2 11  1  0  0  0  0
  2 12  1  0  0  0  0
  3 13  1  0  0  0  0
  3 14  1  0  0  0  0
  4 15  1  0  0  0  0
  4 16  1  0  0  0  0
  4 17  1  0  0  0  0
M  CHG  1   1  -1
M  END
