 xtb: 6.7.1 (edcfbbe)
          12202401543D

 15 15  0     0  0            999 V2000
    2.4077   -1.5669   -0.0057 F   0  0  0  0  0  0  0  0  0  0  0  0
    1.2040   -0.9790   -0.0040 C   0  0  0  0  0  0  0  0  0  0  0  0
    1.2008    0.4142    0.0001 C   0  0  0  0  0  0  0  0  0  0  0  0
   -0.0024    1.1016    0.0026 C   0  0  0  0  0  0  0  0  0  0  0  0
   -1.1881    0.3829    0.0014 C   0  0  0  0  0  0  0  0  0  0  0  0
   -1.1505   -1.0083   -0.0028 C   0  0  0  0  0  0  0  0  0  0  0  0
    0.0369   -1.7297   -0.0060 C   0  0  0  0  0  0  0  0  0  0  0  0
   -0.0229   -3.4199   -0.0132 B   0  0  0  0  0  0  0  0  0  0  0  0
   -0.6953   -3.8395    1.1283 F   0  0  0  0  0  0  0  0  0  0  0  0
   -0.7096   -3.8289   -1.1499 F   0  0  0  0  0  0  0  0  0  0  0  0
    1.2420   -3.9746   -0.0240 F   0  0  0  0  0  0  0  0  0  0  0  0
   -2.3316   -1.6386   -0.0035 F   0  0  0  0  0  0  0  0  0  0  0  0
   -2.3642    1.0456    0.0038 F   0  0  0  0  0  0  0  0  0  0  0  0
   -0.0198    2.4503    0.0062 F   0  0  0  0  0  0  0  0  0  0  0  0
    2.3600    1.1070    0.0017 F   0  0  0  0  0  0  0  0  0  0  0  0
  1  2  1  0  0  0  0
  2  3  4  0  0  0  0
  3  4  4  0  0  0  0
  4  5  4  0  0  0  0
  5  6  4  0  0  0  0
  2  7  4  0  0  0  0
  6  7  4  0  0  0  0
  7  8  1  0  0  0  0
  8  9  1  0  0  0  0
  8 10  1  0  0  0  0
  8 11  1  0  0  0  0
  6 12  1  0  0  0  0
  5 13  1  0  0  0  0
  4 14  1  0  0  0  0
  3 15  1  0  0  0  0
M  CHG  1   1  -1
M  END
