 xtb: 6.7.1 (edcfbbe)
          12202401543D

  6  5  0     0  0            999 V2000
    1.1000   -0.0129   -0.0879 S   0  0  0  0  0  0  0  0  0  0  0  0
    0.5120    1.1193    0.6151 O   0  0  0  0  0  0  0  0  0  0  0  0
    0.5120   -0.2384   -1.4014 O   0  0  0  0  0  0  0  0  0  0  0  0
    0.5710   -1.3235    0.7946 O   0  0  0  0  0  0  0  0  0  0  0  0
    2.5435   -0.0790   -0.0434 O   0  0  0  0  0  0  0  0  0  0  0  0
   -0.3474   -1.1196    0.6573 H   0  0  0  0  0  0  0  0  0  0  0  0
  1  2  2  0  0  0  0
  1  3  2  0  0  0  0
  1  4  1  0  0  0  0
  1  5  2  0  0  0  0
  4  6  1  0  0  0  0
M  CHG  1   1  -1
M  END
