 xtb: 6.7.1 (edcfbbe)
          12202401543D

 11 10  0     0  0            999 V2000
    1.0210    0.0059   -0.0919 F   0  0  0  0  0  0  0  0  0  0  0  0
    2.3913   -0.1046   -0.0561 C   0  0  0  0  0  0  0  0  0  0  0  0
    2.8835    0.4030   -1.4126 C   0  0  0  0  0  0  0  0  0  0  0  0
    2.4038    1.6332   -1.7185 F   0  0  0  0  0  0  0  0  0  0  0  0
    4.2138    0.5186   -1.4718 F   0  0  0  0  0  0  0  0  0  0  0  0
    2.5132   -0.3825   -2.4291 F   0  0  0  0  0  0  0  0  0  0  0  0
    2.7819    0.8466    0.8582 F   0  0  0  0  0  0  0  0  0  0  0  0
    2.9267   -1.6781    0.3353 B   0  0  0  0  0  0  0  0  0  0  0  0
    2.5048   -2.0090    1.6037 F   0  0  0  0  0  0  0  0  0  0  0  0
    2.3992   -2.5576   -0.5903 F   0  0  0  0  0  0  0  0  0  0  0  0
    4.3071   -1.6957    0.2695 F   0  0  0  0  0  0  0  0  0  0  0  0
  1  2  1  0  0  0  0
  2  3  1  0  0  0  0
  3  4  1  0  0  0  0
  3  5  1  0  0  0  0
  3  6  1  0  0  0  0
  2  7  1  0  0  0  0
  2  8  1  0  0  0  0
  8  9  1  0  0  0  0
  8 10  1  0  0  0  0
  8 11  1  0  0  0  0
M  CHG  1   1  -1
M  END
