 xtb: 6.7.1 (edcfbbe)
          12202401543D

  9  8  0     0  0            999 V2000
    0.7983    0.0038    0.0994 N   0  0  0  0  0  0  0  0  0  0  0  0
    0.5654   -0.7424    1.4236 S   0  0  0  0  0  0  0  0  0  0  0  0
    0.8517   -2.1697    1.4638 O   0  0  0  0  0  0  0  0  0  0  0  0
    0.8545   -0.0404    2.6661 O   0  0  0  0  0  0  0  0  0  0  0  0
   -1.3106   -0.7076    1.3636 C   0  0  0  0  0  0  0  0  0  0  0  0
   -1.8162    0.5366    1.3463 F   0  0  0  0  0  0  0  0  0  0  0  0
   -1.8187   -1.3367    0.2912 F   0  0  0  0  0  0  0  0  0  0  0  0
   -1.8466   -1.3130    2.4397 F   0  0  0  0  0  0  0  0  0  0  0  0
    1.7795    0.1144   -0.0768 H   0  0  0  0  0  0  0  0  0  0  0  0
  1  2  2  0  0  0  0
  2  3  2  0  0  0  0
  2  4  2  0  0  0  0
  2  5  1  0  0  0  0
  5  6  1  0  0  0  0
  5  7  1  0  0  0  0
  5  8  1  0  0  0  0
  1  9  1  0  0  0  0
M  CHG  1   1  -1
M  END
