9

N          0.85540        0.03415        0.05187
S          0.50209       -0.73273        1.40883
O          0.90368       -2.14025        1.40012
O          0.90367        0.00077        2.61012
C         -1.35154       -0.71916        1.38480
F         -1.87277        0.54535        1.37160
F         -1.87277       -1.36013        0.29471
F         -1.88908       -1.33815        2.48006
H          1.87874        0.05508        0.01485
