 xtb: 6.7.1 (edcfbbe)
          12202401543D

  3  3  0     0  0            999 V2000
    1.1953   -0.0555    0.0023 N   0  0  0  0  0  0  0  0  0  0  0  0
    2.3541   -0.0555    0.0023 N   0  0  0  0  0  0  0  0  0  0  0  0
    3.5128   -0.0555    0.0023 N   0  0  0  0  0  0  0  0  0  0  0  0
  1  2  2  0  0  0  0
  1  3  1  0  0  0  0
  2  3  2  0  0  0  0
M  CHG  1   1  -1
M  END
