12

O          1.19542        0.05233       -0.17605
S          2.62386       -0.09145        0.08576
O          3.10447        0.69315        1.21449
O          3.10447       -1.46493        0.02931
O          3.27989        0.61348       -1.19785
C          4.67469        0.65740       -1.27783
F          5.20950        1.32998       -0.22275
F          5.20950       -0.59382       -1.27927
C          5.08717        1.36780       -2.57140
F          4.63079        0.73716       -3.68615
F          4.63079        2.64687       -2.63737
F          6.44075        1.44061       -2.70397
