 xtb: 6.7.1 (edcfbbe)
          12202401543D

 12 11  0     0  0            999 V2000
    1.2046    0.0097   -0.1255 O   0  0  0  0  0  0  0  0  0  0  0  0
    2.6012   -0.1383    0.1673 S   0  0  0  0  0  0  0  0  0  0  0  0
    3.1049    0.6677    1.2412 O   0  0  0  0  0  0  0  0  0  0  0  0
    3.1217   -1.4717    0.0783 O   0  0  0  0  0  0  0  0  0  0  0  0
    3.2912    0.6627   -1.2950 O   0  0  0  0  0  0  0  0  0  0  0  0
    4.5702    0.6752   -1.3083 C   0  0  0  0  0  0  0  0  0  0  0  0
    5.1724    1.3325   -0.2660 F   0  0  0  0  0  0  0  0  0  0  0  0
    5.1801   -0.5528   -1.2954 F   0  0  0  0  0  0  0  0  0  0  0  0
    5.1071    1.3801   -2.5939 C   0  0  0  0  0  0  0  0  0  0  0  0
    4.6779    0.7786   -3.7057 F   0  0  0  0  0  0  0  0  0  0  0  0
    4.7141    2.6542   -2.6618 F   0  0  0  0  0  0  0  0  0  0  0  0
    6.4460    1.3907   -2.6583 F   0  0  0  0  0  0  0  0  0  0  0  0
  1  2  2  0  0  0  0
  2  3  2  0  0  0  0
  2  4  2  0  0  0  0
  2  5  1  0  0  0  0
  5  6  1  0  0  0  0
  6  7  1  0  0  0  0
  6  8  1  0  0  0  0
  6  9  1  0  0  0  0
  9 10  1  0  0  0  0
  9 11  1  0  0  0  0
  9 12  1  0  0  0  0
M  CHG  1   1  -1
M  END
