 xtb: 6.7.1 (edcfbbe)
          12202401543D

 13 14  0     0  0            999 V2000
    1.1461    0.0071    0.2462 O   0  0  0  0  0  0  0  0  0  0  0  0
    2.3306   -0.0362    0.0465 C   0  0  0  0  0  0  0  0  0  0  0  0
    3.0206   -1.1106   -0.2743 O   0  0  0  0  0  0  0  0  0  0  0  0
    4.4502   -0.7716   -0.4377 B   0  0  0  0  0  0  0  0  0  0  0  0
    4.5210    0.6790   -0.1657 O   0  0  0  0  0  0  0  0  0  0  0  0
    3.3244    1.1492    0.1185 C   0  0  0  0  0  0  0  0  0  0  0  0
    3.0615    2.2918    0.3830 O   0  0  0  0  0  0  0  0  0  0  0  0
    4.9470   -1.1068   -1.7890 O   0  0  0  0  0  0  0  0  0  0  0  0
    5.9517   -1.9542   -1.7088 C   0  0  0  0  0  0  0  0  0  0  0  0
    6.5638   -2.4112   -2.6366 O   0  0  0  0  0  0  0  0  0  0  0  0
    6.1930   -2.2471   -0.2074 C   0  0  0  0  0  0  0  0  0  0  0  0
    7.0290   -2.9752    0.2569 O   0  0  0  0  0  0  0  0  0  0  0  0
    5.3111   -1.5493    0.4772 O   0  0  0  0  0  0  0  0  0  0  0  0
  1  2  2  0  0  0  0
  2  3  1  0  0  0  0
  3  4  1  0  0  0  0
  4  5  1  0  0  0  0
  2  6  1  0  0  0  0
  5  6  1  0  0  0  0
  6  7  2  0  0  0  0
  4  8  1  0  0  0  0
  8  9  1  0  0  0  0
  9 10  2  0  0  0  0
  9 11  1  0  0  0  0
 11 12  2  0  0  0  0
  4 13  1  0  0  0  0
 11 13  1  0  0  0  0
M  CHG  1   1  -1
M  END
