 xtb: 6.7.1 (edcfbbe)
          12202401543D

 19 19  0     0  0            999 V2000
    1.1895   -0.0565    0.1644 C   0  0  0  0  0  0  0  0  0  0  0  0
    0.3112   -1.1442    0.3293 O   0  0  0  0  0  0  0  0  0  0  0  0
    0.7656   -2.4117    0.1098 C   0  0  0  0  0  0  0  0  0  0  0  0
   -0.1706   -3.4356    0.2792 C   0  0  0  0  0  0  0  0  0  0  0  0
    0.1509   -4.7715    0.0846 C   0  0  0  0  0  0  0  0  0  0  0  0
    1.4213   -5.1873   -0.2925 C   0  0  0  0  0  0  0  0  0  0  0  0
    2.3427   -4.1652   -0.4532 C   0  0  0  0  0  0  0  0  0  0  0  0
    2.0429   -2.8174   -0.2627 C   0  0  0  0  0  0  0  0  0  0  0  0
    3.0434   -1.9106   -0.4538 F   0  0  0  0  0  0  0  0  0  0  0  0
    3.6082   -4.4350   -0.8105 F   0  0  0  0  0  0  0  0  0  0  0  0
    1.8855   -6.7817   -0.5546 B   0  0  0  0  0  0  0  0  0  0  0  0
    2.3818   -6.8970   -1.8514 F   0  0  0  0  0  0  0  0  0  0  0  0
    2.8814   -7.1162    0.3611 F   0  0  0  0  0  0  0  0  0  0  0  0
    0.8263   -7.6607   -0.4048 F   0  0  0  0  0  0  0  0  0  0  0  0
   -0.8390   -5.6562    0.2816 F   0  0  0  0  0  0  0  0  0  0  0  0
   -1.4288   -3.0877    0.6450 F   0  0  0  0  0  0  0  0  0  0  0  0
    0.5916    0.8287    0.3799 H   0  0  0  0  0  0  0  0  0  0  0  0
    1.5726    0.0062   -0.8579 H   0  0  0  0  0  0  0  0  0  0  0  0
    2.0304   -0.1037    0.8617 H   0  0  0  0  0  0  0  0  0  0  0  0
  1  2  1  0  0  0  0
  2  3  1  0  0  0  0
  3  4  4  0  0  0  0
  4  5  4  0  0  0  0
  5  6  4  0  0  0  0
  6  7  4  0  0  0  0
  3  8  4  0  0  0  0
  7  8  4  0  0  0  0
  8  9  1  0  0  0  0
  7 10  1  0  0  0  0
  6 11  1  0  0  0  0
 11 12  1  0  0  0  0
 11 13  1  0  0  0  0
 11 14  1  0  0  0  0
  5 15  1  0  0  0  0
  4 16  1  0  0  0  0
  1 17  1  0  0  0  0
  1 18  1  0  0  0  0
  1 19  1  0  0  0  0
M  CHG  1   1  -1
M  END
