7

S          1.10329       -0.05634        0.04181
N          0.54780        0.14597       -1.54270
O          0.52005       -1.33612        0.40859
O          0.51148        1.11344        0.67402
O          2.54556       -0.01813       -0.13399
H         -0.46752        0.14356       -1.49713
H          0.92515        1.03035       -1.87205
