 xtb: 6.7.1 (edcfbbe)
          12202401543D

  7  6  0     0  0            999 V2000
    1.0978   -0.0591    0.0143 S   0  0  0  0  0  0  0  0  0  0  0  0
    0.5446    0.1174   -1.6243 N   0  0  0  0  0  0  0  0  0  0  0  0
    0.5390   -1.3295    0.4462 O   0  0  0  0  0  0  0  0  0  0  0  0
    0.5258    1.1025    0.6982 O   0  0  0  0  0  0  0  0  0  0  0  0
    2.5469   -0.0242   -0.0920 O   0  0  0  0  0  0  0  0  0  0  0  0
   -0.4549    0.1793   -1.5020 H   0  0  0  0  0  0  0  0  0  0  0  0
    0.8865    1.0363   -1.8619 H   0  0  0  0  0  0  0  0  0  0  0  0
  1  2  1  0  0  0  0
  1  3  2  0  0  0  0
  1  4  2  0  0  0  0
  1  5  2  0  0  0  0
  2  6  1  0  0  0  0
  2  7  1  0  0  0  0
M  CHG  1   1  -1
M  END
