32

C          1.05421       -0.31481       -0.32078
C          0.77482        0.53945        0.90614
C          1.28651        1.97902        0.78199
C          0.66201        2.79186       -0.35335
N         -0.77391        2.93552       -0.19024
C         -1.50289        4.02592        0.18407
O         -2.69776        3.87884        0.44320
C         -0.83049        5.38878        0.33562
N         -0.18358        5.58593        1.64813
C         -0.47148        4.92184        2.83414
C          0.32407        5.47497        3.79754
N          1.05074        6.48290        3.18579
C          0.72004        6.54732        1.88839
C          1.98927        7.37851        3.85084
H          0.49194        0.03587       -1.19107
H          0.75679       -1.35147       -0.13228
H          2.11997       -0.30845       -0.56984
H         -0.30050        0.53372        1.11692
H          1.26224        0.07416        1.77149
H          1.10250        2.48985        1.73481
H          2.37414        1.95872        0.64185
H          1.13563        3.77593       -0.38501
H          0.83279        2.31492       -1.32273
H         -1.33819        2.09471       -0.28193
H         -0.09353        5.54320       -0.45759
H         -1.59526        6.16603        0.22468
H         -1.20923        4.13617        2.85090
H          0.45630        5.29314        4.85052
H          1.10666        7.25716        1.16561
H          2.60998        7.88277        3.10541
H          1.42406        8.12152        4.41984
H          2.62988        6.80175        4.52312
