55

C          1.49654        0.48792       -0.46044
C          1.23738       -0.46398       -1.61897
C          1.57897       -1.92602       -1.30863
C          0.89008       -2.52007       -0.07480
C         -0.63876       -2.57738       -0.16156
C         -1.18448       -3.74509       -0.99624
C         -1.07025       -5.12354       -0.32947
C         -1.88595       -5.29449        0.95472
N         -3.28909       -5.62866        0.69740
C         -3.79258       -6.85359        0.57659
N         -3.07283       -7.97210        0.66770
N         -5.10458       -6.79883        0.39380
C         -5.49698       -5.45943        0.38799
C         -4.33394       -4.71031        0.60038
C         -4.35672       -3.31980        0.68757
C         -5.60371       -2.70582        0.52314
C         -6.77088       -3.45697        0.30014
C         -6.74444       -4.85629        0.23646
C         -6.00477       -7.94036        0.25733
C         -6.03316       -8.41123       -1.17488
C         -5.22266       -9.47253       -1.60876
C         -5.25922       -9.90189       -2.93751
C         -6.11371       -9.28629       -3.84746
C         -6.93115       -8.23953       -3.43178
C         -6.88832       -7.80155       -2.10661
H          0.81096        0.30207        0.37193
H          1.34677        1.52337       -0.78264
H          2.52311        0.39180       -0.09321
H          0.19283       -0.37438       -1.93583
H          1.84441       -0.14396       -2.47455
H          1.34798       -2.53536       -2.19002
H          2.66381       -2.00219       -1.16090
H          1.29561       -3.52189        0.10399
H          1.16899       -1.93180        0.80717
H         -1.03408       -2.62715        0.85708
H         -1.02755       -1.64069       -0.57417
H         -2.23550       -3.55047       -1.23401
H         -0.66336       -3.77691       -1.96029
H         -1.37898       -5.88576       -1.05569
H         -0.01699       -5.32300       -0.10414
H         -1.45354       -6.11202        1.54293
H         -1.83910       -4.42018        1.60832
H         -2.07079       -7.94253        0.76598
H         -3.50827       -8.87735        0.62039
H         -3.46179       -2.74042        0.86783
H         -5.67263       -1.61857        0.57046
H         -7.72038       -2.93473        0.17866
H         -7.64754       -5.43049        0.07819
H         -5.67454       -8.74192        0.92764
H         -7.01233       -7.66882        0.59149
H         -4.56790      -10.00192       -0.92430
H         -4.63033      -10.72725       -3.26474
H         -6.15045       -9.62890       -4.87928
H         -7.60833       -7.76846       -4.14123
H         -7.54649       -6.98829       -1.81227
