 xtb: 6.7.1 (edcfbbe)
          12202402023D

 51 52  0     0  0            999 V2000
    0.9727   -0.1051   -0.5891 C   0  0  0  0  0  0  0  0  0  0  0  0
    0.5177   -1.4231    0.0255 C   0  0  0  0  0  0  0  0  0  0  0  0
    0.9840   -1.6068    1.4705 C   0  0  0  0  0  0  0  0  0  0  0  0
    0.4477   -0.5679    2.4577 C   0  0  0  0  0  0  0  0  0  0  0  0
   -1.0769   -0.5160    2.5774 C   0  0  0  0  0  0  0  0  0  0  0  0
   -1.7370   -1.8321    2.9939 C   0  0  0  0  0  0  0  0  0  0  0  0
   -1.2283   -2.4214    4.3120 C   0  0  0  0  0  0  0  0  0  0  0  0
   -1.3646   -1.4967    5.5244 C   0  0  0  0  0  0  0  0  0  0  0  0
   -2.7997   -1.1086    5.8780 C   0  0  0  0  0  0  0  0  0  0  0  0
   -3.6565   -2.2801    6.3815 C   0  0  0  0  0  0  0  0  0  0  0  0
   -3.1495   -2.7731    7.6475 N   0  0  0  0  0  0  0  0  0  0  0  0
   -3.4959   -2.1571    8.7867 C   0  0  0  0  0  0  0  0  0  0  0  0
   -2.9710   -2.5356    9.9971 C   0  0  0  0  0  0  0  0  0  0  0  0
   -2.0360   -3.5789   10.0640 C   0  0  0  0  0  0  0  0  0  0  0  0
   -1.6947   -4.1995    8.8554 C   0  0  0  0  0  0  0  0  0  0  0  0
   -2.2650   -3.7788    7.6777 C   0  0  0  0  0  0  0  0  0  0  0  0
   -1.4471   -3.9959   11.3332 C   0  0  0  0  0  0  0  0  0  0  0  0
   -0.1159   -4.4144   11.4058 C   0  0  0  0  0  0  0  0  0  0  0  0
    0.3930   -4.7860   12.6414 C   0  0  0  0  0  0  0  0  0  0  0  0
   -0.3214   -4.7769   13.7506 N   0  0  0  0  0  0  0  0  0  0  0  0
   -1.5816   -4.3914   13.6886 C   0  0  0  0  0  0  0  0  0  0  0  0
   -2.1953   -3.9844   12.5133 C   0  0  0  0  0  0  0  0  0  0  0  0
    0.4959    0.7429   -0.1039 H   0  0  0  0  0  0  0  0  0  0  0  0
    0.7165   -0.0755   -1.6452 H   0  0  0  0  0  0  0  0  0  0  0  0
    2.0509    0.0054   -0.4964 H   0  0  0  0  0  0  0  0  0  0  0  0
   -0.5702   -1.4949   -0.0292 H   0  0  0  0  0  0  0  0  0  0  0  0
    0.9259   -2.2459   -0.5660 H   0  0  0  0  0  0  0  0  0  0  0  0
    0.7034   -2.6084    1.8045 H   0  0  0  0  0  0  0  0  0  0  0  0
    2.0753   -1.5553    1.4905 H   0  0  0  0  0  0  0  0  0  0  0  0
    0.8855   -0.7689    3.4387 H   0  0  0  0  0  0  0  0  0  0  0  0
    0.7953    0.4207    2.1545 H   0  0  0  0  0  0  0  0  0  0  0  0
   -1.3403    0.2693    3.2904 H   0  0  0  0  0  0  0  0  0  0  0  0
   -1.4990   -0.2212    1.6159 H   0  0  0  0  0  0  0  0  0  0  0  0
   -2.8170   -1.6748    3.0513 H   0  0  0  0  0  0  0  0  0  0  0  0
   -1.5692   -2.5744    2.2125 H   0  0  0  0  0  0  0  0  0  0  0  0
   -1.7571   -3.3625    4.4884 H   0  0  0  0  0  0  0  0  0  0  0  0
   -0.1725   -2.6700    4.2012 H   0  0  0  0  0  0  0  0  0  0  0  0
   -0.8840   -1.9668    6.3888 H   0  0  0  0  0  0  0  0  0  0  0  0
   -0.8132   -0.5787    5.3226 H   0  0  0  0  0  0  0  0  0  0  0  0
   -2.7830   -0.3288    6.6428 H   0  0  0  0  0  0  0  0  0  0  0  0
   -3.2909   -0.6965    4.9977 H   0  0  0  0  0  0  0  0  0  0  0  0
   -4.6865   -1.9463    6.5205 H   0  0  0  0  0  0  0  0  0  0  0  0
   -3.6467   -3.0899    5.6516 H   0  0  0  0  0  0  0  0  0  0  0  0
   -4.2076   -1.3483    8.7106 H   0  0  0  0  0  0  0  0  0  0  0  0
   -3.2676   -2.0100   10.8905 H   0  0  0  0  0  0  0  0  0  0  0  0
   -0.9985   -5.0227    8.8405 H   0  0  0  0  0  0  0  0  0  0  0  0
   -2.0260   -4.2550    6.7386 H   0  0  0  0  0  0  0  0  0  0  0  0
    0.5178   -4.4129   10.5329 H   0  0  0  0  0  0  0  0  0  0  0  0
    1.4199   -5.1070   12.7457 H   0  0  0  0  0  0  0  0  0  0  0  0
   -2.1245   -4.4052   14.6232 H   0  0  0  0  0  0  0  0  0  0  0  0
   -3.2368   -3.7045   12.5104 H   0  0  0  0  0  0  0  0  0  0  0  0
  1  2  1  0  0  0  0
  2  3  1  0  0  0  0
  3  4  1  0  0  0  0
  4  5  1  0  0  0  0
  5  6  1  0  0  0  0
  6  7  1  0  0  0  0
  7  8  1  0  0  0  0
  8  9  1  0  0  0  0
  9 10  1  0  0  0  0
 10 11  1  0  0  0  0
 11 12  4  0  0  0  0
 12 13  4  0  0  0  0
 13 14  4  0  0  0  0
 14 15  4  0  0  0  0
 11 16  4  0  0  0  0
 15 16  4  0  0  0  0
 14 17  1  0  0  0  0
 17 18  4  0  0  0  0
 18 19  4  0  0  0  0
 19 20  4  0  0  0  0
 20 21  4  0  0  0  0
 17 22  4  0  0  0  0
 21 22  4  0  0  0  0
  1 23  1  0  0  0  0
  1 24  1  0  0  0  0
  1 25  1  0  0  0  0
  2 26  1  0  0  0  0
  2 27  1  0  0  0  0
  3 28  1  0  0  0  0
  3 29  1  0  0  0  0
  4 30  1  0  0  0  0
  4 31  1  0  0  0  0
  5 32  1  0  0  0  0
  5 33  1  0  0  0  0
  6 34  1  0  0  0  0
  6 35  1  0  0  0  0
  7 36  1  0  0  0  0
  7 37  1  0  0  0  0
  8 38  1  0  0  0  0
  8 39  1  0  0  0  0
  9 40  1  0  0  0  0
  9 41  1  0  0  0  0
 10 42  1  0  0  0  0
 10 43  1  0  0  0  0
 12 44  1  0  0  0  0
 13 45  1  0  0  0  0
 15 46  1  0  0  0  0
 16 47  1  0  0  0  0
 18 48  1  0  0  0  0
 19 49  1  0  0  0  0
 21 50  1  0  0  0  0
 22 51  1  0  0  0  0
M  CHG  1   1   1
M  END
