30

C          1.14938        0.06162       -0.19928
C          0.29154        0.16502       -1.22415
C         -1.18992        0.32836       -1.08487
N         -1.56738        1.63017       -1.62480
C         -1.03963        2.79025       -1.20630
N         -1.62469        3.79959       -1.86790
C         -2.58264        3.28567       -2.73564
C         -2.54447        1.89076       -2.58146
C         -3.38193        1.04414       -3.30526
C         -4.26721        1.66424       -4.19737
C         -4.30604        3.06271       -4.35081
C         -3.46054        3.90855       -3.62045
C         -1.25318        5.19788       -1.68840
C         -1.57144        5.58744       -0.27918
C         -0.66482        5.95217        0.63818
H          0.82565        0.08661        0.83804
H          2.21404       -0.07555       -0.37710
H          0.67862        0.10602       -2.23979
H         -1.69713       -0.47500       -1.62593
H         -1.51355        0.29166       -0.03889
H         -0.26428        2.89694       -0.45612
H         -3.35530       -0.03208       -3.19042
H         -4.94586        1.04849       -4.78936
H         -5.01460        3.49762       -5.05716
H         -3.49503        4.98415       -3.73894
H         -0.18509        5.29527       -1.91261
H         -1.80248        5.83706       -2.38473
H         -2.62424        5.58609       -0.00289
H         -0.97447        6.23940        1.64098
H          0.39934        5.99824        0.42243
