 xtb: 6.7.1 (edcfbbe)
          12202402033D

 21 21  0     0  0            999 V2000
    0.9214    0.0438    0.0293 C   0  0  0  0  0  0  0  0  0  0  0  0
    0.4288   -0.3437    1.3417 C   0  0  0  0  0  0  0  0  0  0  0  0
    0.0200   -0.6558    2.4254 C   0  0  0  0  0  0  0  0  0  0  0  0
   -0.4555   -1.0570    3.7224 C   0  0  0  0  0  0  0  0  0  0  0  0
    0.4898    1.3942   -0.2942 N   0  0  0  0  0  0  0  0  0  0  0  0
    1.0966    2.5164    0.0782 C   0  0  0  0  0  0  0  0  0  0  0  0
    0.3846    3.5623   -0.3369 N   0  0  0  0  0  0  0  0  0  0  0  0
   -0.7117    3.0899   -0.9894 C   0  0  0  0  0  0  0  0  0  0  0  0
   -0.6473    1.7288   -0.9594 C   0  0  0  0  0  0  0  0  0  0  0  0
    0.7186    4.9465   -0.1294 C   0  0  0  0  0  0  0  0  0  0  0  0
    0.5310   -0.6372   -0.7323 H   0  0  0  0  0  0  0  0  0  0  0  0
    2.0150    0.0071    0.0156 H   0  0  0  0  0  0  0  0  0  0  0  0
   -1.5430   -1.1090    3.7230 H   0  0  0  0  0  0  0  0  0  0  0  0
   -0.0546   -2.0395    3.9668 H   0  0  0  0  0  0  0  0  0  0  0  0
   -0.1294   -0.3445    4.4785 H   0  0  0  0  0  0  0  0  0  0  0  0
    2.0161    2.5705    0.6288 H   0  0  0  0  0  0  0  0  0  0  0  0
   -1.4481    3.7341   -1.4249 H   0  0  0  0  0  0  0  0  0  0  0  0
   -1.3203    0.9969   -1.3577 H   0  0  0  0  0  0  0  0  0  0  0  0
    0.7513    5.1734    0.9368 H   0  0  0  0  0  0  0  0  0  0  0  0
    1.6933    5.1718   -0.5631 H   0  0  0  0  0  0  0  0  0  0  0  0
   -0.0323    5.5755   -0.6015 H   0  0  0  0  0  0  0  0  0  0  0  0
  1  2  1  0  0  0  0
  2  3  3  0  0  0  0
  3  4  1  0  0  0  0
  1  5  1  0  0  0  0
  5  6  4  0  0  0  0
  6  7  4  0  0  0  0
  7  8  4  0  0  0  0
  5  9  4  0  0  0  0
  8  9  2  0  0  0  0
  7 10  1  0  0  0  0
  1 11  1  0  0  0  0
  1 12  1  0  0  0  0
  4 13  1  0  0  0  0
  4 14  1  0  0  0  0
  4 15  1  0  0  0  0
  6 16  1  0  0  0  0
  8 17  1  0  0  0  0
  9 18  1  0  0  0  0
 10 19  1  0  0  0  0
 10 20  1  0  0  0  0
 10 21  1  0  0  0  0
M  CHG  1   1   1
M  END
