25

Cl         1.08919       -0.01364        0.04110
C          2.81031        0.00736        0.04915
C          3.47944        1.24474        0.05225
C          4.88020        1.32126        0.05909
C          5.56307        0.10546        0.06257
C          4.88988       -1.11976        0.05917
C          3.50013       -1.20993        0.05246
N          5.86875       -2.10640        0.06359
C          5.60183       -3.54763        0.06076
C          7.11222       -1.54624        0.07082
N          6.92103       -0.19418        0.06954
C          8.01577        0.78042        0.07508
C          8.46876       -2.31192        0.07876
F          8.57392       -3.11101        1.17097
F          8.58712       -3.11036       -1.01257
F          9.54007       -1.47934        0.08549
H          2.89959        2.16873        0.04932
H          5.39311        2.27530        0.06151
H          2.98841       -2.16398        0.05005
H          5.02344       -3.80302        0.95296
H          5.03322       -3.80119       -0.83825
H          6.53107       -4.11923        0.06519
H          8.61711        0.63164        0.97583
H          8.62645        0.63127       -0.81931
H          7.63357        1.80297        0.07290
