 xtb: 6.7.1 (edcfbbe)
          12202402033D

 30 31  0     0  0            999 V2000
    1.0622   -0.3205   -0.0708 C   0  0  0  0  0  0  0  0  0  0  0  0
    0.4974    0.0952   -1.1882 C   0  0  0  0  0  0  0  0  0  0  0  0
   -0.9869    0.2089   -1.3811 C   0  0  0  0  0  0  0  0  0  0  0  0
   -1.3708    1.5538   -1.7666 N   0  0  0  0  0  0  0  0  0  0  0  0
   -0.7362    2.6719   -1.4307 C   0  0  0  0  0  0  0  0  0  0  0  0
   -1.3358    3.7417   -1.9400 N   0  0  0  0  0  0  0  0  0  0  0  0
   -2.4411    3.3091   -2.6426 C   0  0  0  0  0  0  0  0  0  0  0  0
   -2.4634    1.9046   -2.5321 C   0  0  0  0  0  0  0  0  0  0  0  0
   -3.4628    1.1497   -3.1357 C   0  0  0  0  0  0  0  0  0  0  0  0
   -4.4223    1.8389   -3.8472 C   0  0  0  0  0  0  0  0  0  0  0  0
   -4.3973    3.2327   -3.9607 C   0  0  0  0  0  0  0  0  0  0  0  0
   -3.4131    3.9926   -3.3645 C   0  0  0  0  0  0  0  0  0  0  0  0
   -0.9543    5.1219   -1.7208 C   0  0  0  0  0  0  0  0  0  0  0  0
   -1.7953    5.7362   -0.6323 C   0  0  0  0  0  0  0  0  0  0  0  0
   -1.2925    6.2458    0.4748 C   0  0  0  0  0  0  0  0  0  0  0  0
    0.4828   -0.5987    0.7939 H   0  0  0  0  0  0  0  0  0  0  0  0
    2.1296   -0.4163    0.0193 H   0  0  0  0  0  0  0  0  0  0  0  0
    1.0929    0.3578   -2.0522 H   0  0  0  0  0  0  0  0  0  0  0  0
   -1.3094   -0.4666   -2.1793 H   0  0  0  0  0  0  0  0  0  0  0  0
   -1.5138   -0.0657   -0.4612 H   0  0  0  0  0  0  0  0  0  0  0  0
    0.1524    2.7000   -0.8281 H   0  0  0  0  0  0  0  0  0  0  0  0
   -3.4928    0.0759   -3.0516 H   0  0  0  0  0  0  0  0  0  0  0  0
   -5.2151    1.2905   -4.3302 H   0  0  0  0  0  0  0  0  0  0  0  0
   -5.1705    3.7237   -4.5296 H   0  0  0  0  0  0  0  0  0  0  0  0
   -3.4017    5.0663   -3.4556 H   0  0  0  0  0  0  0  0  0  0  0  0
    0.1022    5.1546   -1.4485 H   0  0  0  0  0  0  0  0  0  0  0  0
   -1.0971    5.6658   -2.6594 H   0  0  0  0  0  0  0  0  0  0  0  0
   -2.8605    5.7350   -0.8157 H   0  0  0  0  0  0  0  0  0  0  0  0
   -1.9212    6.6906    1.2252 H   0  0  0  0  0  0  0  0  0  0  0  0
   -0.2330    6.2581    0.6713 H   0  0  0  0  0  0  0  0  0  0  0  0
  1  2  2  0  0  0  0
  2  3  1  0  0  0  0
  3  4  1  0  0  0  0
  4  5  4  0  0  0  0
  5  6  4  0  0  0  0
  6  7  1  0  0  0  0
  4  8  1  0  0  0  0
  7  8  4  0  0  0  0
  8  9  4  0  0  0  0
  9 10  4  0  0  0  0
 10 11  4  0  0  0  0
  7 12  4  0  0  0  0
 11 12  4  0  0  0  0
  6 13  1  0  0  0  0
 13 14  1  0  0  0  0
 14 15  2  0  0  0  0
  1 16  1  0  0  0  0
  1 17  1  0  0  0  0
  2 18  1  0  0  0  0
  3 19  1  0  0  0  0
  3 20  1  0  0  0  0
  5 21  1  0  0  0  0
  9 22  1  0  0  0  0
 10 23  1  0  0  0  0
 11 24  1  0  0  0  0
 12 25  1  0  0  0  0
 13 26  1  0  0  0  0
 13 27  1  0  0  0  0
 14 28  1  0  0  0  0
 15 29  1  0  0  0  0
 15 30  1  0  0  0  0
M  CHG  1   1   1
M  END
