 xtb: 6.7.1 (edcfbbe)
          12202402033D

 28 28  0     0  0            999 V2000
    1.2105    0.0586    0.1343 O   0  0  0  0  0  0  0  0  0  0  0  0
    0.3330   -0.9999   -0.1851 C   0  0  0  0  0  0  0  0  0  0  0  0
    1.0235   -1.9627   -1.1752 C   0  0  0  0  0  0  0  0  0  0  0  0
    2.5518   -1.9372   -1.1106 C   0  0  0  0  0  0  0  0  0  0  0  0
    3.2029   -2.8217   -0.1023 N   0  0  0  0  0  0  0  0  0  0  0  0
    4.6945   -2.6547   -0.2099 C   0  0  0  0  0  0  0  0  0  0  0  0
    5.2063   -3.8961   -0.9269 C   0  0  0  0  0  0  0  0  0  0  0  0
    4.2816   -4.9740   -0.3746 C   0  0  0  0  0  0  0  0  0  0  0  0
    2.9292   -4.2699   -0.3924 C   0  0  0  0  0  0  0  0  0  0  0  0
    2.7588   -2.4704    1.2552 C   0  0  0  0  0  0  0  0  0  0  0  0
    0.7038    0.8070    0.4631 H   0  0  0  0  0  0  0  0  0  0  0  0
    0.0337   -1.5230    0.7339 H   0  0  0  0  0  0  0  0  0  0  0  0
   -0.5807   -0.6223   -0.6535 H   0  0  0  0  0  0  0  0  0  0  0  0
    0.6210   -2.9663   -1.0436 H   0  0  0  0  0  0  0  0  0  0  0  0
    0.7668   -1.6400   -2.1847 H   0  0  0  0  0  0  0  0  0  0  0  0
    2.9559   -2.2215   -2.0834 H   0  0  0  0  0  0  0  0  0  0  0  0
    2.8424   -0.9072   -0.8932 H   0  0  0  0  0  0  0  0  0  0  0  0
    5.1141   -2.6106    0.7951 H   0  0  0  0  0  0  0  0  0  0  0  0
    4.9383   -1.7279   -0.7250 H   0  0  0  0  0  0  0  0  0  0  0  0
    5.0920   -3.8068   -2.0071 H   0  0  0  0  0  0  0  0  0  0  0  0
    6.2540   -4.0836   -0.7085 H   0  0  0  0  0  0  0  0  0  0  0  0
    4.2724   -5.8769   -0.9794 H   0  0  0  0  0  0  0  0  0  0  0  0
    4.5725   -5.2445    0.6405 H   0  0  0  0  0  0  0  0  0  0  0  0
    2.4855   -4.3514   -1.3847 H   0  0  0  0  0  0  0  0  0  0  0  0
    2.2327   -4.6788    0.3368 H   0  0  0  0  0  0  0  0  0  0  0  0
    2.9229   -1.4090    1.4328 H   0  0  0  0  0  0  0  0  0  0  0  0
    1.6989   -2.6788    1.3682 H   0  0  0  0  0  0  0  0  0  0  0  0
    3.3085   -3.0554    1.9901 H   0  0  0  0  0  0  0  0  0  0  0  0
  1  2  1  0  0  0  0
  2  3  1  0  0  0  0
  3  4  1  0  0  0  0
  4  5  1  0  0  0  0
  5  6  1  0  0  0  0
  6  7  1  0  0  0  0
  7  8  1  0  0  0  0
  5  9  1  0  0  0  0
  8  9  1  0  0  0  0
  5 10  1  0  0  0  0
  1 11  1  0  0  0  0
  2 12  1  0  0  0  0
  2 13  1  0  0  0  0
  3 14  1  0  0  0  0
  3 15  1  0  0  0  0
  4 16  1  0  0  0  0
  4 17  1  0  0  0  0
  6 18  1  0  0  0  0
  6 19  1  0  0  0  0
  7 20  1  0  0  0  0
  7 21  1  0  0  0  0
  8 22  1  0  0  0  0
  8 23  1  0  0  0  0
  9 24  1  0  0  0  0
  9 25  1  0  0  0  0
 10 26  1  0  0  0  0
 10 27  1  0  0  0  0
 10 28  1  0  0  0  0
M  CHG  1   1   1
M  END
