35

C          0.91872       -0.02412       -0.11392
C          0.56088       -1.48566       -0.35448
N          1.02461       -2.47513        0.77695
C          0.40938       -1.95419        2.17184
C         -1.11201       -1.75140        2.12380
C          0.76183       -2.84278        3.36586
C          0.49565       -3.95257        0.45015
C          0.30240       -4.22166       -1.04982
C          1.36627       -5.06906        1.03968
C          2.58347       -2.40640        0.91112
C          3.35846       -2.60500       -0.38181
H          0.39227        0.40241        0.74335
H          0.61983        0.56532       -0.98800
H          1.99142        0.13040        0.02205
H         -0.52092       -1.60062       -0.46568
H          1.02298       -1.81100       -1.28997
H          0.88252       -0.98168        2.34654
H         -1.66038       -2.68406        1.96932
H         -1.45640       -1.34138        3.08110
H         -1.42583       -1.03570        1.36154
H          1.83415       -3.02384        3.46247
H          0.45287       -2.34644        4.29406
H          0.23107       -3.79836        3.33735
H         -0.49329       -4.01828        0.90788
H          1.21936       -4.08454       -1.62684
H         -0.02176       -5.25740       -1.20712
H         -0.48254       -3.59466       -1.48270
H          1.56925       -4.95396        2.10365
H          0.85209       -6.03141        0.92713
H          2.32335       -5.16698        0.51983
H          2.82678       -1.42698        1.33675
H          2.89527       -3.15453        1.64169
H          3.16550       -1.81771       -1.11416
H          4.43167       -2.56802       -0.16263
H          3.16631       -3.57333       -0.84497
