 xtb: 6.7.1 (edcfbbe)
          12202402033D

 16 16  0     0  0            999 V2000
    1.0266   -0.2690    0.0403 C   0  0  0  0  0  0  0  0  0  0  0  0
    0.2019   -0.2056    1.0740 C   0  0  0  0  0  0  0  0  0  0  0  0
   -1.2121   -0.2528    1.0298 N   0  0  0  0  0  0  0  0  0  0  0  0
   -1.8874   -0.4350   -0.1184 C   0  0  0  0  0  0  0  0  0  0  0  0
   -3.2643   -0.4761   -0.1422 C   0  0  0  0  0  0  0  0  0  0  0  0
   -3.9762   -0.3286    1.0422 C   0  0  0  0  0  0  0  0  0  0  0  0
   -3.2655   -0.1437    2.2216 C   0  0  0  0  0  0  0  0  0  0  0  0
   -1.8887   -0.1106    2.1844 C   0  0  0  0  0  0  0  0  0  0  0  0
    0.7281   -0.3647   -0.9892 H   0  0  0  0  0  0  0  0  0  0  0  0
    2.0879   -0.2227    0.2120 H   0  0  0  0  0  0  0  0  0  0  0  0
    0.5867   -0.1030    2.0785 H   0  0  0  0  0  0  0  0  0  0  0  0
   -1.3129   -0.5517   -1.0232 H   0  0  0  0  0  0  0  0  0  0  0  0
   -3.7732   -0.6239   -1.0815 H   0  0  0  0  0  0  0  0  0  0  0  0
   -5.0545   -0.3583    1.0458 H   0  0  0  0  0  0  0  0  0  0  0  0
   -3.7734   -0.0259    3.1656 H   0  0  0  0  0  0  0  0  0  0  0  0
   -1.3089    0.0326    3.0850 H   0  0  0  0  0  0  0  0  0  0  0  0
  1  2  2  0  0  0  0
  2  3  1  0  0  0  0
  3  4  4  0  0  0  0
  4  5  4  0  0  0  0
  5  6  4  0  0  0  0
  6  7  4  0  0  0  0
  3  8  4  0  0  0  0
  7  8  4  0  0  0  0
  1  9  1  0  0  0  0
  1 10  1  0  0  0  0
  2 11  1  0  0  0  0
  4 12  1  0  0  0  0
  5 13  1  0  0  0  0
  6 14  1  0  0  0  0
  7 15  1  0  0  0  0
  8 16  1  0  0  0  0
M  CHG  1   1   1
M  END
