 xtb: 6.7.1 (edcfbbe)
          12202402033D

 64 64  0     0  0            999 V2000
    3.3545  -12.9783   -0.4971 C   0  0  0  0  0  0  0  0  0  0  0  0
    2.1828  -12.2484   -1.1425 C   0  0  0  0  0  0  0  0  0  0  0  0
    0.8624  -12.4505   -0.3967 C   0  0  0  0  0  0  0  0  0  0  0  0
    0.8544  -11.9447    1.0477 C   0  0  0  0  0  0  0  0  0  0  0  0
    1.1910  -10.4609    1.2216 C   0  0  0  0  0  0  0  0  0  0  0  0
    0.3064   -9.5005    0.4173 C   0  0  0  0  0  0  0  0  0  0  0  0
   -1.1880   -9.5497    0.7480 C   0  0  0  0  0  0  0  0  0  0  0  0
   -1.6968   -8.5352    1.7255 N   0  0  0  0  0  0  0  0  0  0  0  0
   -1.6819   -7.1625    1.0715 C   0  0  0  0  0  0  0  0  0  0  0  0
   -2.4090   -7.2066   -0.0851 O   0  0  0  0  0  0  0  0  0  0  0  0
   -3.5186   -6.2856   -0.2255 C   0  0  0  0  0  0  0  0  0  0  0  0
   -3.0244   -4.8630   -0.4963 C   0  0  0  0  0  0  0  0  0  0  0  0
   -2.4592   -4.6363   -1.9016 C   0  0  0  0  0  0  0  0  0  0  0  0
   -1.0933   -5.2923   -2.0939 C   0  0  0  0  0  0  0  0  0  0  0  0
   -3.4820   -5.1046   -2.9367 C   0  0  0  0  0  0  0  0  0  0  0  0
   -3.8840   -6.5590   -2.7239 C   0  0  0  0  0  0  0  0  0  0  0  0
   -4.4146   -6.8874   -1.3196 C   0  0  0  0  0  0  0  0  0  0  0  0
   -5.9264   -6.6216   -1.1221 C   0  0  0  0  0  0  0  0  0  0  0  0
   -6.4916   -7.5299   -0.0258 C   0  0  0  0  0  0  0  0  0  0  0  0
   -6.3265   -5.1792   -0.8253 C   0  0  0  0  0  0  0  0  0  0  0  0
   -3.0928   -8.8795    2.0554 C   0  0  0  0  0  0  0  0  0  0  0  0
   -0.9014   -8.5039    2.9600 C   0  0  0  0  0  0  0  0  0  0  0  0
    3.5991  -12.5577    0.4751 H   0  0  0  0  0  0  0  0  0  0  0  0
    4.2363  -12.8994   -1.1277 H   0  0  0  0  0  0  0  0  0  0  0  0
    3.1214  -14.0325   -0.3688 H   0  0  0  0  0  0  0  0  0  0  0  0
    2.4150  -11.1844   -1.2213 H   0  0  0  0  0  0  0  0  0  0  0  0
    2.0521  -12.6253   -2.1588 H   0  0  0  0  0  0  0  0  0  0  0  0
    0.0585  -11.9712   -0.9609 H   0  0  0  0  0  0  0  0  0  0  0  0
    0.6414  -13.5195   -0.3728 H   0  0  0  0  0  0  0  0  0  0  0  0
   -0.1254  -12.1641    1.4815 H   0  0  0  0  0  0  0  0  0  0  0  0
    1.5818  -12.5162    1.6246 H   0  0  0  0  0  0  0  0  0  0  0  0
    1.1559  -10.2258    2.2867 H   0  0  0  0  0  0  0  0  0  0  0  0
    2.2190  -10.2998    0.8968 H   0  0  0  0  0  0  0  0  0  0  0  0
    0.6972   -8.4875    0.5175 H   0  0  0  0  0  0  0  0  0  0  0  0
    0.4097   -9.7605   -0.6361 H   0  0  0  0  0  0  0  0  0  0  0  0
   -1.7667   -9.3856   -0.1625 H   0  0  0  0  0  0  0  0  0  0  0  0
   -1.4323  -10.5366    1.1420 H   0  0  0  0  0  0  0  0  0  0  0  0
   -2.0829   -6.4461    1.8003 H   0  0  0  0  0  0  0  0  0  0  0  0
   -0.6317   -6.9191    0.8673 H   0  0  0  0  0  0  0  0  0  0  0  0
   -4.0672   -6.2819    0.7285 H   0  0  0  0  0  0  0  0  0  0  0  0
   -2.2645   -4.6052    0.2476 H   0  0  0  0  0  0  0  0  0  0  0  0
   -3.8661   -4.1879   -0.3484 H   0  0  0  0  0  0  0  0  0  0  0  0
   -2.3220   -3.5562   -2.0241 H   0  0  0  0  0  0  0  0  0  0  0  0
   -1.1459   -6.3677   -1.9554 H   0  0  0  0  0  0  0  0  0  0  0  0
   -0.7235   -5.0909   -3.0959 H   0  0  0  0  0  0  0  0  0  0  0  0
   -0.3771   -4.8839   -1.3829 H   0  0  0  0  0  0  0  0  0  0  0  0
   -4.3600   -4.4610   -2.8883 H   0  0  0  0  0  0  0  0  0  0  0  0
   -3.0595   -5.0007   -3.9372 H   0  0  0  0  0  0  0  0  0  0  0  0
   -3.0104   -7.1863   -2.9084 H   0  0  0  0  0  0  0  0  0  0  0  0
   -4.6408   -6.8362   -3.4588 H   0  0  0  0  0  0  0  0  0  0  0  0
   -4.3076   -7.9757   -1.2159 H   0  0  0  0  0  0  0  0  0  0  0  0
   -6.4070   -6.9116   -2.0623 H   0  0  0  0  0  0  0  0  0  0  0  0
   -6.0699   -7.2851    0.9486 H   0  0  0  0  0  0  0  0  0  0  0  0
   -7.5686   -7.4025    0.0405 H   0  0  0  0  0  0  0  0  0  0  0  0
   -6.2915   -8.5785   -0.2409 H   0  0  0  0  0  0  0  0  0  0  0  0
   -5.9610   -4.4958   -1.5842 H   0  0  0  0  0  0  0  0  0  0  0  0
   -7.4116   -5.1072   -0.8117 H   0  0  0  0  0  0  0  0  0  0  0  0
   -5.9631   -4.8578    0.1484 H   0  0  0  0  0  0  0  0  0  0  0  0
   -3.1407   -9.8707    2.5016 H   0  0  0  0  0  0  0  0  0  0  0  0
   -3.4978   -8.1580    2.7634 H   0  0  0  0  0  0  0  0  0  0  0  0
   -3.6965   -8.8665    1.1493 H   0  0  0  0  0  0  0  0  0  0  0  0
   -0.8915   -9.4937    3.4130 H   0  0  0  0  0  0  0  0  0  0  0  0
    0.1205   -8.1984    2.7500 H   0  0  0  0  0  0  0  0  0  0  0  0
   -1.3362   -7.7995    3.6680 H   0  0  0  0  0  0  0  0  0  0  0  0
  1  2  1  0  0  0  0
  2  3  1  0  0  0  0
  3  4  1  0  0  0  0
  4  5  1  0  0  0  0
  5  6  1  0  0  0  0
  6  7  1  0  0  0  0
  7  8  1  0  0  0  0
  8  9  1  0  0  0  0
  9 10  1  0  0  0  0
 10 11  1  0  0  0  0
 11 12  1  0  0  0  0
 12 13  1  0  0  0  0
 13 14  1  0  0  0  0
 13 15  1  0  0  0  0
 15 16  1  0  0  0  0
 11 17  1  0  0  0  0
 16 17  1  0  0  0  0
 17 18  1  0  0  0  0
 18 19  1  0  0  0  0
 18 20  1  0  0  0  0
  8 21  1  0  0  0  0
  8 22  1  0  0  0  0
  1 23  1  0  0  0  0
  1 24  1  0  0  0  0
  1 25  1  0  0  0  0
  2 26  1  0  0  0  0
  2 27  1  0  0  0  0
  3 28  1  0  0  0  0
  3 29  1  0  0  0  0
  4 30  1  0  0  0  0
  4 31  1  0  0  0  0
  5 32  1  0  0  0  0
  5 33  1  0  0  0  0
  6 34  1  0  0  0  0
  6 35  1  0  0  0  0
  7 36  1  0  0  0  0
  7 37  1  0  0  0  0
  9 38  1  0  0  0  0
  9 39  1  0  0  0  0
 11 40  1  0  0  0  0
 12 41  1  0  0  0  0
 12 42  1  0  0  0  0
 13 43  1  0  0  0  0
 14 44  1  0  0  0  0
 14 45  1  0  0  0  0
 14 46  1  0  0  0  0
 15 47  1  0  0  0  0
 15 48  1  0  0  0  0
 16 49  1  0  0  0  0
 16 50  1  0  0  0  0
 17 51  1  0  0  0  0
 18 52  1  0  0  0  0
 19 53  1  0  0  0  0
 19 54  1  0  0  0  0
 19 55  1  0  0  0  0
 20 56  1  0  0  0  0
 20 57  1  0  0  0  0
 20 58  1  0  0  0  0
 21 59  1  0  0  0  0
 21 60  1  0  0  0  0
 21 61  1  0  0  0  0
 22 62  1  0  0  0  0
 22 63  1  0  0  0  0
 22 64  1  0  0  0  0
M  CHG  1   1   1
M  END
