33

C          1.50332        1.38890       -1.39193
O          0.93752        0.95906       -0.15633
C          1.14221        1.91150        0.88266
C          0.46054        1.47012        2.19452
N          0.85621        0.05717        2.72190
C          2.40964       -0.13582        2.69404
C          3.17851        0.85922        3.55171
C          0.40617       -0.10301        4.19839
C         -1.09221       -0.15113        4.42335
C          0.29825       -1.10020        1.83177
C         -1.10989       -0.92030        1.28154
H          1.26140        0.64553       -2.15606
H          2.59133        1.46052       -1.30302
H          1.08313        2.35281       -1.69446
H          2.21587        2.06607        1.03105
H          0.70969        2.87295        0.58065
H          0.70333        2.18759        2.98593
H         -0.62595        1.47322        2.07453
H          2.60653       -1.15743        3.04223
H          2.73536       -0.07028        1.65130
H          2.99016        0.71257        4.61873
H          4.25332        0.71162        3.39951
H          2.95505        1.89806        3.29784
H          0.87019       -1.01925        4.58205
H          0.81238        0.75054        4.74983
H         -1.51154       -1.11086        4.11085
H         -1.29945       -0.06243        5.49580
H         -1.62223        0.66354        3.92428
H          0.98973       -1.23362        0.99299
H          0.35402       -2.01013        2.44127
H         -1.18767       -0.08495        0.58230
H         -1.38726       -1.81972        0.71991
H         -1.86953       -0.78419        2.04919
