 xtb: 6.7.1 (edcfbbe)
          12202402033D

 57 57  0     0  0            999 V2000
    1.1305    0.5481    0.4645 C   0  0  0  0  0  0  0  0  0  0  0  0
    0.6947    1.4830   -0.6574 C   0  0  0  0  0  0  0  0  0  0  0  0
    1.0760    0.9737   -2.0481 C   0  0  0  0  0  0  0  0  0  0  0  0
    0.4280   -0.3536   -2.4478 C   0  0  0  0  0  0  0  0  0  0  0  0
   -1.1017   -0.3406   -2.4871 C   0  0  0  0  0  0  0  0  0  0  0  0
   -1.7161    0.6884   -3.4388 C   0  0  0  0  0  0  0  0  0  0  0  0
   -1.2500    0.5831   -4.8932 C   0  0  0  0  0  0  0  0  0  0  0  0
   -1.4758   -0.7850   -5.5412 C   0  0  0  0  0  0  0  0  0  0  0  0
   -2.9415   -1.1986   -5.6738 C   0  0  0  0  0  0  0  0  0  0  0  0
   -3.7272   -0.3785   -6.7082 C   0  0  0  0  0  0  0  0  0  0  0  0
   -3.1593   -0.5668   -8.0309 N   0  0  0  0  0  0  0  0  0  0  0  0
   -2.3036    0.3310   -8.5277 C   0  0  0  0  0  0  0  0  0  0  0  0
   -1.6624    0.1037   -9.7294 C   0  0  0  0  0  0  0  0  0  0  0  0
   -1.8983   -1.0758  -10.4159 C   0  0  0  0  0  0  0  0  0  0  0  0
   -2.8019   -2.0083   -9.8976 C   0  0  0  0  0  0  0  0  0  0  0  0
   -3.4165   -1.6990   -8.6942 C   0  0  0  0  0  0  0  0  0  0  0  0
   -3.1380   -3.2699  -10.6161 C   0  0  0  0  0  0  0  0  0  0  0  0
   -4.3072   -3.0539  -11.5978 C   0  0  0  0  0  0  0  0  0  0  0  0
   -3.9775   -2.1410  -12.7779 C   0  0  0  0  0  0  0  0  0  0  0  0
   -2.8886   -2.6658  -13.7176 C   0  0  0  0  0  0  0  0  0  0  0  0
   -3.2405   -4.0014  -14.3625 C   0  0  0  0  0  0  0  0  0  0  0  0
    0.5912   -0.3951    0.4255 H   0  0  0  0  0  0  0  0  0  0  0  0
    0.9363    1.0064    1.4311 H   0  0  0  0  0  0  0  0  0  0  0  0
    2.1959    0.3398    0.3935 H   0  0  0  0  0  0  0  0  0  0  0  0
   -0.3835    1.6438   -0.6001 H   0  0  0  0  0  0  0  0  0  0  0  0
    1.1744    2.4537   -0.5120 H   0  0  0  0  0  0  0  0  0  0  0  0
    0.8228    1.7406   -2.7838 H   0  0  0  0  0  0  0  0  0  0  0  0
    2.1601    0.8407   -2.0821 H   0  0  0  0  0  0  0  0  0  0  0  0
    0.8173   -0.6438   -3.4269 H   0  0  0  0  0  0  0  0  0  0  0  0
    0.7400   -1.1259   -1.7433 H   0  0  0  0  0  0  0  0  0  0  0  0
   -1.4483   -1.3418   -2.7554 H   0  0  0  0  0  0  0  0  0  0  0  0
   -1.4813   -0.1363   -1.4853 H   0  0  0  0  0  0  0  0  0  0  0  0
   -2.8042    0.5959   -3.3913 H   0  0  0  0  0  0  0  0  0  0  0  0
   -1.4705    1.6901   -3.0839 H   0  0  0  0  0  0  0  0  0  0  0  0
   -1.7532    1.3645   -5.4694 H   0  0  0  0  0  0  0  0  0  0  0  0
   -0.1817    0.7978   -4.9360 H   0  0  0  0  0  0  0  0  0  0  0  0
   -0.9965   -0.7967   -6.5255 H   0  0  0  0  0  0  0  0  0  0  0  0
   -0.9703   -1.5396   -4.9396 H   0  0  0  0  0  0  0  0  0  0  0  0
   -2.9915   -2.2546   -5.9481 H   0  0  0  0  0  0  0  0  0  0  0  0
   -3.4404   -1.0835   -4.7126 H   0  0  0  0  0  0  0  0  0  0  0  0
   -4.7695   -0.7034   -6.7186 H   0  0  0  0  0  0  0  0  0  0  0  0
   -3.6929    0.6801   -6.4509 H   0  0  0  0  0  0  0  0  0  0  0  0
   -2.1336    1.2302   -7.9560 H   0  0  0  0  0  0  0  0  0  0  0  0
   -0.9760    0.8414  -10.1126 H   0  0  0  0  0  0  0  0  0  0  0  0
   -1.3827   -1.2797  -11.3410 H   0  0  0  0  0  0  0  0  0  0  0  0
   -4.1247   -2.3798   -8.2438 H   0  0  0  0  0  0  0  0  0  0  0  0
   -2.2698   -3.6257  -11.1689 H   0  0  0  0  0  0  0  0  0  0  0  0
   -3.4292   -4.0372   -9.8978 H   0  0  0  0  0  0  0  0  0  0  0  0
   -4.6116   -4.0298  -11.9733 H   0  0  0  0  0  0  0  0  0  0  0  0
   -5.1545   -2.6330  -11.0510 H   0  0  0  0  0  0  0  0  0  0  0  0
   -4.8932   -2.0107  -13.3581 H   0  0  0  0  0  0  0  0  0  0  0  0
   -3.6878   -1.1522  -12.4090 H   0  0  0  0  0  0  0  0  0  0  0  0
   -2.7439   -1.9229  -14.5047 H   0  0  0  0  0  0  0  0  0  0  0  0
   -1.9367   -2.7631  -13.1897 H   0  0  0  0  0  0  0  0  0  0  0  0
   -4.2135   -3.9473  -14.8447 H   0  0  0  0  0  0  0  0  0  0  0  0
   -2.5010   -4.2554  -15.1174 H   0  0  0  0  0  0  0  0  0  0  0  0
   -3.2597   -4.8057  -13.6310 H   0  0  0  0  0  0  0  0  0  0  0  0
  1  2  1  0  0  0  0
  2  3  1  0  0  0  0
  3  4  1  0  0  0  0
  4  5  1  0  0  0  0
  5  6  1  0  0  0  0
  6  7  1  0  0  0  0
  7  8  1  0  0  0  0
  8  9  1  0  0  0  0
  9 10  1  0  0  0  0
 10 11  1  0  0  0  0
 11 12  4  0  0  0  0
 12 13  4  0  0  0  0
 13 14  4  0  0  0  0
 14 15  4  0  0  0  0
 11 16  4  0  0  0  0
 15 16  4  0  0  0  0
 15 17  1  0  0  0  0
 17 18  1  0  0  0  0
 18 19  1  0  0  0  0
 19 20  1  0  0  0  0
 20 21  1  0  0  0  0
  1 22  1  0  0  0  0
  1 23  1  0  0  0  0
  1 24  1  0  0  0  0
  2 25  1  0  0  0  0
  2 26  1  0  0  0  0
  3 27  1  0  0  0  0
  3 28  1  0  0  0  0
  4 29  1  0  0  0  0
  4 30  1  0  0  0  0
  5 31  1  0  0  0  0
  5 32  1  0  0  0  0
  6 33  1  0  0  0  0
  6 34  1  0  0  0  0
  7 35  1  0  0  0  0
  7 36  1  0  0  0  0
  8 37  1  0  0  0  0
  8 38  1  0  0  0  0
  9 39  1  0  0  0  0
  9 40  1  0  0  0  0
 10 41  1  0  0  0  0
 10 42  1  0  0  0  0
 12 43  1  0  0  0  0
 13 44  1  0  0  0  0
 14 45  1  0  0  0  0
 16 46  1  0  0  0  0
 17 47  1  0  0  0  0
 17 48  1  0  0  0  0
 18 49  1  0  0  0  0
 18 50  1  0  0  0  0
 19 51  1  0  0  0  0
 19 52  1  0  0  0  0
 20 53  1  0  0  0  0
 20 54  1  0  0  0  0
 21 55  1  0  0  0  0
 21 56  1  0  0  0  0
 21 57  1  0  0  0  0
M  CHG  1   1   1
M  END
