64

C          3.29309      -13.29705       -0.50532
C          2.22682      -12.46740       -1.20573
C          0.87672      -12.48324       -0.48438
C          0.88786      -11.89780        0.93105
C          1.22181      -10.40305        1.02515
C          0.27375       -9.45116        0.27784
C         -1.20342       -9.53590        0.67950
N         -1.65161       -8.53574        1.76589
C         -1.63493       -7.10954        1.22815
O         -2.23501       -6.99173       -0.04300
C         -3.47340       -6.26468       -0.08724
C         -3.19198       -4.78994       -0.38091
C         -2.63778       -4.51202       -1.78740
C         -1.14872       -4.84357       -1.91546
C         -3.46369       -5.21077       -2.87245
C         -3.77206       -6.68021       -2.57907
C         -4.33248       -6.95944       -1.16868
C         -5.88219       -6.80957       -1.04895
C         -6.38828       -6.98556        0.38794
C         -6.50191       -5.55153       -1.65111
C         -3.08739       -8.89386        2.14225
C         -0.80397       -8.61710        3.01860
H          3.57749      -12.85657        0.45476
H          4.19482      -13.35216       -1.12336
H          2.94231      -14.31875       -0.32722
H          2.58427      -11.43993       -1.33185
H          2.08207      -12.87239       -2.21468
H          0.13922      -11.95501       -1.09937
H          0.52634      -13.52152       -0.42315
H         -0.08701      -12.08872        1.39232
H          1.60449      -12.45102        1.54912
H          1.25790      -10.13242        2.08471
H          2.23834      -10.23887        0.64806
H          0.65565       -8.42964        0.37012
H          0.34202       -9.68514       -0.79193
H         -1.83163       -9.34890       -0.19925
H         -1.46957      -10.53172        1.04433
H         -2.09010       -6.45433        1.98382
H         -0.58698       -6.81074        1.13096
H         -3.95810       -6.35048        0.88952
H         -2.49098       -4.39174        0.36307
H         -4.12223       -4.22435       -0.25638
H         -2.71948       -3.42952       -1.95752
H         -0.95069       -5.91751       -1.87856
H         -0.76035       -4.47396       -2.87115
H         -0.57309       -4.36018       -1.11908
H         -4.39627       -4.65510       -3.00371
H         -2.94900       -5.14123       -3.83909
H         -2.84095       -7.25064       -2.69716
H         -4.45536       -7.07344       -3.34115
H         -4.17035       -8.03952       -1.02003
H         -6.30411       -7.64918       -1.62092
H         -6.16036       -6.11094        1.00621
H         -7.47624       -7.11518        0.39844
H         -5.94917       -7.87130        0.85731
H         -6.37109       -5.53000       -2.73672
H         -7.58346       -5.53351       -1.47344
H         -6.08464       -4.63887       -1.22097
H         -3.08729       -9.88592        2.60434
H         -3.46218       -8.14873        2.85099
H         -3.69855       -8.90516        1.23694
H         -0.77387       -9.65908        3.35014
H          0.19946       -8.24603        2.79739
H         -1.26247       -7.98950        3.78970
