22

C          1.00698       -0.13670       -0.14569
C          0.37034       -0.18891        1.03249
C         -1.11335       -0.26074        1.19415
N         -1.60141       -1.67181        1.37138
C         -1.13213       -2.35955        2.62809
C         -1.63011       -1.74214        3.89499
C         -2.57127       -2.27533        4.68647
C         -3.08766       -1.77668        1.18012
H          0.48501       -0.15292       -1.09882
H          2.09192       -0.05435       -0.18690
H          0.96599       -0.13051        1.94246
H         -1.45039        0.33772        2.04683
H         -1.60579        0.13363        0.29686
H         -1.17618       -2.19912        0.59992
H         -1.45076       -3.40561        2.54207
H         -0.03706       -2.36581        2.61483
H         -1.15568       -0.81696        4.21760
H         -2.86154       -1.78298        5.61306
H         -3.06919       -3.21396        4.45832
H         -3.32142       -1.44275        0.16536
H         -3.37740       -2.82459        1.29535
H         -3.58871       -1.14391        1.91715
