 xtb: 6.7.1 (edcfbbe)
          12202402033D

 33 32  0     0  0            999 V2000
    0.0613    1.7025   -1.2358 C   0  0  0  0  0  0  0  0  0  0  0  0
    0.3204    0.9607    0.0677 C   0  0  0  0  0  0  0  0  0  0  0  0
    1.2299    1.6319    0.9395 O   0  0  0  0  0  0  0  0  0  0  0  0
    2.5604    1.6880    0.5013 C   0  0  0  0  0  0  0  0  0  0  0  0
    3.3538    2.3480    2.0126 P   0  0  0  0  0  0  0  0  0  0  0  0
    3.0441    1.1669    3.3655 C   0  0  0  0  0  0  0  0  0  0  0  0
    3.8295   -0.1338    3.2311 C   0  0  0  0  0  0  0  0  0  0  0  0
    5.1551    2.5375    1.7554 C   0  0  0  0  0  0  0  0  0  0  0  0
    5.5153    3.6554    0.7823 C   0  0  0  0  0  0  0  0  0  0  0  0
    2.5506    3.9258    2.4607 C   0  0  0  0  0  0  0  0  0  0  0  0
    2.0798    4.7510    1.2668 C   0  0  0  0  0  0  0  0  0  0  0  0
   -0.2714    2.7184   -1.0368 H   0  0  0  0  0  0  0  0  0  0  0  0
   -0.7205    1.1867   -1.7848 H   0  0  0  0  0  0  0  0  0  0  0  0
    0.9493    1.7344   -1.8632 H   0  0  0  0  0  0  0  0  0  0  0  0
   -0.5991    0.8873    0.6513 H   0  0  0  0  0  0  0  0  0  0  0  0
    0.6956   -0.0508   -0.1355 H   0  0  0  0  0  0  0  0  0  0  0  0
    2.9605    0.6945    0.2450 H   0  0  0  0  0  0  0  0  0  0  0  0
    2.7056    2.3603   -0.3554 H   0  0  0  0  0  0  0  0  0  0  0  0
    3.2962    1.6749    4.3013 H   0  0  0  0  0  0  0  0  0  0  0  0
    1.9674    0.9733    3.3612 H   0  0  0  0  0  0  0  0  0  0  0  0
    4.9010    0.0391    3.2982 H   0  0  0  0  0  0  0  0  0  0  0  0
    3.5502   -0.8086    4.0363 H   0  0  0  0  0  0  0  0  0  0  0  0
    3.6126   -0.6329    2.2894 H   0  0  0  0  0  0  0  0  0  0  0  0
    5.6043    2.7262    2.7342 H   0  0  0  0  0  0  0  0  0  0  0  0
    5.5325    1.5788    1.3886 H   0  0  0  0  0  0  0  0  0  0  0  0
    5.2034    4.6251    1.1619 H   0  0  0  0  0  0  0  0  0  0  0  0
    6.5940    3.6835    0.6485 H   0  0  0  0  0  0  0  0  0  0  0  0
    5.0625    3.4937   -0.1934 H   0  0  0  0  0  0  0  0  0  0  0  0
    1.6959    3.6703    3.0933 H   0  0  0  0  0  0  0  0  0  0  0  0
    3.2691    4.4857    3.0672 H   0  0  0  0  0  0  0  0  0  0  0  0
    1.2976    4.2237    0.7280 H   0  0  0  0  0  0  0  0  0  0  0  0
    1.6656    5.6910    1.6229 H   0  0  0  0  0  0  0  0  0  0  0  0
    2.8916    4.9793    0.5810 H   0  0  0  0  0  0  0  0  0  0  0  0
  1  2  1  0  0  0  0
  2  3  1  0  0  0  0
  3  4  1  0  0  0  0
  4  5  1  0  0  0  0
  5  6  1  0  0  0  0
  6  7  1  0  0  0  0
  5  8  1  0  0  0  0
  8  9  1  0  0  0  0
  5 10  1  0  0  0  0
 10 11  1  0  0  0  0
  1 12  1  0  0  0  0
  1 13  1  0  0  0  0
  1 14  1  0  0  0  0
  2 15  1  0  0  0  0
  2 16  1  0  0  0  0
  4 17  1  0  0  0  0
  4 18  1  0  0  0  0
  6 19  1  0  0  0  0
  6 20  1  0  0  0  0
  7 21  1  0  0  0  0
  7 22  1  0  0  0  0
  7 23  1  0  0  0  0
  8 24  1  0  0  0  0
  8 25  1  0  0  0  0
  9 26  1  0  0  0  0
  9 27  1  0  0  0  0
  9 28  1  0  0  0  0
 10 29  1  0  0  0  0
 10 30  1  0  0  0  0
 11 31  1  0  0  0  0
 11 32  1  0  0  0  0
 11 33  1  0  0  0  0
M  CHG  1   1   1
M  END
