38

C          0.82456       -0.00815        0.99594
C          0.31733        1.39380        0.69110
C          0.87191        1.97099       -0.61300
C          0.55118        1.16315       -1.87207
C         -0.93417        1.07574       -2.23844
C         -1.63501        2.40471       -2.55802
C         -0.96592        3.29883       -3.60579
O         -1.38369        3.08249       -4.95114
C         -1.03648        1.85292       -5.55308
N          0.40664        1.71036       -5.62948
C          1.29704        2.66246       -6.10080
C          2.54711        2.12598       -5.97789
N          2.38468        0.85014       -5.46099
C          1.07667        0.59926       -5.29882
C          3.45020       -0.09361       -5.14688
H          0.42113       -0.74134        0.29112
H          0.51395       -0.31155        2.00065
H          1.91764       -0.05041        0.95187
H         -0.77773        1.39232        0.67458
H          0.61563        2.05638        1.51257
H          0.51002        2.99901       -0.72944
H          1.96349        2.04395       -0.52458
H          1.11456        1.59428       -2.70476
H          0.94163        0.14449       -1.76455
H         -1.03438        0.39302       -3.08635
H         -1.48038        0.59108       -1.42003
H         -2.66467        2.18849       -2.86773
H         -1.70246        2.97324       -1.62215
H         -1.26910        4.32988       -3.38676
H          0.12412        3.30082       -3.53751
H         -1.49599        1.00859       -5.03694
H         -1.42183        1.85541       -6.57829
H          0.91648        3.61134       -6.43968
H          3.53862        2.48901       -6.18863
H          0.64745       -0.32816       -4.93665
H          3.20132       -0.62117       -4.22178
H          3.54112       -0.80877       -5.96817
H          4.39529        0.43909       -5.01190
