31

C          0.79304       -0.11615        0.19495
N          0.56970        1.27140        0.57850
C          1.31548        2.35886        0.16201
C          0.73933        3.46618        0.71623
N         -0.35069        3.02737        1.45108
C         -0.43703        1.68803        1.36385
C         -1.31051        3.88517        2.18109
C         -2.74865        3.59393        1.76309
O         -3.10091        2.43958        1.50416
C         -3.75259        4.70092        1.68627
C         -5.06113        4.36382        1.30847
C         -6.04132        5.34838        1.18606
C         -5.72395        6.68100        1.43515
C         -4.42827        7.03937        1.82230
C         -3.44609        6.04364        1.95137
C         -4.10066        8.48668        2.05878
H          0.34516       -0.28542       -0.78783
H          0.33196       -0.78110        0.92981
H          1.86721       -0.31586        0.15297
H          2.16152        2.20186       -0.48476
H          0.96172        4.51854        0.67163
H         -1.17895        1.05153        1.83470
H         -1.20455        3.67783        3.25077
H         -1.02509        4.91879        1.98479
H         -5.33361        3.32990        1.10032
H         -7.05266        5.07715        0.88985
H         -6.49551        7.44189        1.32492
H         -2.45615        6.36299        2.25741
H         -4.14078        9.03773        1.11363
H         -4.81214        8.92757        2.76421
H         -3.09726        8.60726        2.48006
