 xtb: 6.7.1 (edcfbbe)
          12202402033D

 28 27  0     0  0            999 V2000
    1.4999    0.7494   -0.4192 C   0  0  0  0  0  0  0  0  0  0  0  0
    0.7324    1.0049   -1.4630 C   0  0  0  0  0  0  0  0  0  0  0  0
   -0.5858    0.3288   -1.6987 C   0  0  0  0  0  0  0  0  0  0  0  0
   -1.7668    1.2496   -1.5920 N   0  0  0  0  0  0  0  0  0  0  0  0
   -2.9960    0.4784   -1.8350 C   0  0  0  0  0  0  0  0  0  0  0  0
   -3.4853    0.0101   -2.9806 C   0  0  0  0  0  0  0  0  0  0  0  0
   -4.7751   -0.7452   -2.9373 C   0  0  0  0  0  0  0  0  0  0  0  0
   -2.9231    0.1615   -4.3590 C   0  0  0  0  0  0  0  0  0  0  0  0
   -1.6508    2.3906   -2.5226 C   0  0  0  0  0  0  0  0  0  0  0  0
   -1.8252    1.7883   -0.2184 C   0  0  0  0  0  0  0  0  0  0  0  0
    1.2136    0.0485    0.3475 H   0  0  0  0  0  0  0  0  0  0  0  0
    2.4588    1.2209   -0.2969 H   0  0  0  0  0  0  0  0  0  0  0  0
    1.0614    1.6932   -2.2281 H   0  0  0  0  0  0  0  0  0  0  0  0
   -0.5973   -0.1145   -2.6963 H   0  0  0  0  0  0  0  0  0  0  0  0
   -0.7316   -0.4704   -0.9686 H   0  0  0  0  0  0  0  0  0  0  0  0
   -3.5315    0.2721   -0.9229 H   0  0  0  0  0  0  0  0  0  0  0  0
   -5.4863   -0.2942   -3.6259 H   0  0  0  0  0  0  0  0  0  0  0  0
   -4.6118   -1.7698   -3.2665 H   0  0  0  0  0  0  0  0  0  0  0  0
   -5.2115   -0.7657   -1.9442 H   0  0  0  0  0  0  0  0  0  0  0  0
   -3.2395    1.1126   -4.7875 H   0  0  0  0  0  0  0  0  0  0  0  0
   -1.8384    0.1070   -4.3983 H   0  0  0  0  0  0  0  0  0  0  0  0
   -3.3176   -0.6234   -4.9994 H   0  0  0  0  0  0  0  0  0  0  0  0
   -2.6063    2.9100   -2.5735 H   0  0  0  0  0  0  0  0  0  0  0  0
   -0.8927    3.0852   -2.1669 H   0  0  0  0  0  0  0  0  0  0  0  0
   -1.3787    2.0544   -3.5180 H   0  0  0  0  0  0  0  0  0  0  0  0
   -1.9375    0.9791    0.5009 H   0  0  0  0  0  0  0  0  0  0  0  0
   -0.9046    2.3245    0.0063 H   0  0  0  0  0  0  0  0  0  0  0  0
   -2.6701    2.4682   -0.1238 H   0  0  0  0  0  0  0  0  0  0  0  0
  1  2  2  0  0  0  0
  2  3  1  0  0  0  0
  3  4  1  0  0  0  0
  4  5  1  0  0  0  0
  5  6  2  0  0  0  0
  6  7  1  0  0  0  0
  6  8  1  0  0  0  0
  4  9  1  0  0  0  0
  4 10  1  0  0  0  0
  1 11  1  0  0  0  0
  1 12  1  0  0  0  0
  2 13  1  0  0  0  0
  3 14  1  0  0  0  0
  3 15  1  0  0  0  0
  5 16  1  0  0  0  0
  7 17  1  0  0  0  0
  7 18  1  0  0  0  0
  7 19  1  0  0  0  0
  8 20  1  0  0  0  0
  8 21  1  0  0  0  0
  8 22  1  0  0  0  0
  9 23  1  0  0  0  0
  9 24  1  0  0  0  0
  9 25  1  0  0  0  0
 10 26  1  0  0  0  0
 10 27  1  0  0  0  0
 10 28  1  0  0  0  0
M  CHG  1   1   1
M  END
