 xtb: 6.7.1 (edcfbbe)
          12202402033D

 31 32  0     0  0            999 V2000
    0.6659   -0.2167    0.7853 C   0  0  0  0  0  0  0  0  0  0  0  0
    0.4873    1.2096    0.7678 N   0  0  0  0  0  0  0  0  0  0  0  0
    1.1413    2.0767   -0.0562 C   0  0  0  0  0  0  0  0  0  0  0  0
    0.6839    3.3265    0.2239 C   0  0  0  0  0  0  0  0  0  0  0  0
   -0.2321    3.2071    1.2275 N   0  0  0  0  0  0  0  0  0  0  0  0
   -0.3458    1.9129    1.5287 C   0  0  0  0  0  0  0  0  0  0  0  0
   -1.1337    4.2181    1.6913 C   0  0  0  0  0  0  0  0  0  0  0  0
   -2.5781    3.7867    1.2864 C   0  0  0  0  0  0  0  0  0  0  0  0
   -2.7414    2.6462    0.9163 O   0  0  0  0  0  0  0  0  0  0  0  0
   -3.6288    4.7884    1.3902 C   0  0  0  0  0  0  0  0  0  0  0  0
   -4.8893    4.4446    0.8856 C   0  0  0  0  0  0  0  0  0  0  0  0
   -5.9297    5.3491    0.9496 C   0  0  0  0  0  0  0  0  0  0  0  0
   -5.7294    6.5939    1.5203 C   0  0  0  0  0  0  0  0  0  0  0  0
   -4.4860    6.9564    2.0408 C   0  0  0  0  0  0  0  0  0  0  0  0
   -3.4418    6.0498    1.9685 C   0  0  0  0  0  0  0  0  0  0  0  0
   -4.3017    8.3065    2.6551 C   0  0  0  0  0  0  0  0  0  0  0  0
    0.4292   -0.6341   -0.1941 H   0  0  0  0  0  0  0  0  0  0  0  0
    0.0071   -0.6615    1.5273 H   0  0  0  0  0  0  0  0  0  0  0  0
    1.7000   -0.4640    1.0279 H   0  0  0  0  0  0  0  0  0  0  0  0
    1.8684    1.7528   -0.7725 H   0  0  0  0  0  0  0  0  0  0  0  0
    0.9462    4.2700   -0.2090 H   0  0  0  0  0  0  0  0  0  0  0  0
   -0.9898    1.5038    2.2819 H   0  0  0  0  0  0  0  0  0  0  0  0
   -1.0990    4.2990    2.7815 H   0  0  0  0  0  0  0  0  0  0  0  0
   -0.8699    5.1749    1.2423 H   0  0  0  0  0  0  0  0  0  0  0  0
   -5.0234    3.4686    0.4458 H   0  0  0  0  0  0  0  0  0  0  0  0
   -6.8985    5.0844    0.5563 H   0  0  0  0  0  0  0  0  0  0  0  0
   -6.5449    7.2998    1.5705 H   0  0  0  0  0  0  0  0  0  0  0  0
   -2.4854    6.3302    2.3835 H   0  0  0  0  0  0  0  0  0  0  0  0
   -4.4360    9.0812    1.9014 H   0  0  0  0  0  0  0  0  0  0  0  0
   -5.0458    8.4732    3.4316 H   0  0  0  0  0  0  0  0  0  0  0  0
   -3.3121    8.4145    3.0904 H   0  0  0  0  0  0  0  0  0  0  0  0
  1  2  1  0  0  0  0
  2  3  4  0  0  0  0
  3  4  2  0  0  0  0
  4  5  4  0  0  0  0
  2  6  4  0  0  0  0
  5  6  4  0  0  0  0
  5  7  1  0  0  0  0
  7  8  1  0  0  0  0
  8  9  2  0  0  0  0
  8 10  1  0  0  0  0
 10 11  4  0  0  0  0
 11 12  4  0  0  0  0
 12 13  4  0  0  0  0
 13 14  4  0  0  0  0
 10 15  4  0  0  0  0
 14 15  4  0  0  0  0
 14 16  1  0  0  0  0
  1 17  1  0  0  0  0
  1 18  1  0  0  0  0
  1 19  1  0  0  0  0
  3 20  1  0  0  0  0
  4 21  1  0  0  0  0
  6 22  1  0  0  0  0
  7 23  1  0  0  0  0
  7 24  1  0  0  0  0
 11 25  1  0  0  0  0
 12 26  1  0  0  0  0
 13 27  1  0  0  0  0
 15 28  1  0  0  0  0
 16 29  1  0  0  0  0
 16 30  1  0  0  0  0
 16 31  1  0  0  0  0
M  CHG  1   1   1
M  END
