25

C         -1.55064        2.52790       -0.07264
N         -1.11867        1.12986       -0.02285
C          0.20422        0.69897       -0.01282
C          1.40668        1.40380       -0.01319
C          2.57583        0.63072       -0.00842
C          2.53332       -0.77620       -0.00528
C          1.31903       -1.47525       -0.00389
C          0.16398       -0.69682       -0.00479
N         -1.17937       -1.05125        0.00429
C         -1.96518        0.06190        0.05705
C         -3.51726        0.08866        0.17180
F         -4.10176       -0.30063       -0.98944
F         -3.95537       -0.75626        1.14111
F         -3.99824        1.32130        0.47347
C         -1.67701       -2.42809       -0.00788
H         -1.73214        2.87665        0.94708
H         -0.78206        3.14633       -0.54312
H         -2.45959        2.61432       -0.67211
H          1.44202        2.48609       -0.01379
H          3.54566        1.13050       -0.00708
H          3.47073       -1.33410       -0.00243
H          1.28335       -2.55766        0.00106
H         -1.22115       -2.96541       -0.84439
H         -1.40842       -2.91013        0.93592
H         -2.76079       -2.45123       -0.13234
