28

C          1.45719        0.95618       -0.01127
C          0.87625        0.99796       -1.21916
C         -0.37204        0.25528       -1.59476
N         -1.64157        1.12686       -1.71793
C         -2.75521        0.20110       -1.92925
C         -3.53587        0.02743       -3.01393
C         -4.61430       -1.04063       -2.94768
C         -3.52942        0.73388       -4.34180
C         -1.45740        2.18478       -2.78282
C         -1.93186        1.84128       -0.39043
H          1.05158        0.38020        0.81622
H          2.38219        1.49739        0.17963
H          1.36804        1.56918       -2.00431
H         -0.22486       -0.24167       -2.56236
H         -0.58507       -0.52221       -0.84811
H         -2.97181       -0.46017       -1.08025
H         -5.60338       -0.58565       -3.06639
H         -4.46711       -1.77487       -3.74725
H         -4.61429       -1.58812       -1.99919
H         -3.78490        1.79084       -4.23079
H         -2.57048        0.61723       -4.85205
H         -4.28410        0.31308       -5.01711
H         -2.38398        2.75371       -2.89260
H         -0.67343        2.87691       -2.45715
H         -1.13236        1.71394       -3.71304
H         -1.95830        1.10082        0.41595
H         -1.14405        2.57662       -0.20235
H         -2.89690        2.35280       -0.47763
