 xtb: 6.7.1 (edcfbbe)
          12202402033D

 38 38  0     0  0            999 V2000
    0.4777    0.1253    1.2504 C   0  0  0  0  0  0  0  0  0  0  0  0
    0.1446    1.5309    0.7643 C   0  0  0  0  0  0  0  0  0  0  0  0
    0.8941    1.9257   -0.5092 C   0  0  0  0  0  0  0  0  0  0  0  0
    0.6074    1.0393   -1.7235 C   0  0  0  0  0  0  0  0  0  0  0  0
   -0.8620    0.9942   -2.1516 C   0  0  0  0  0  0  0  0  0  0  0  0
   -1.5006    2.3541   -2.4657 C   0  0  0  0  0  0  0  0  0  0  0  0
   -0.7826    3.2436   -3.4853 C   0  0  0  0  0  0  0  0  0  0  0  0
   -1.2251    3.1070   -4.8410 O   0  0  0  0  0  0  0  0  0  0  0  0
   -1.0182    1.9019   -5.4583 C   0  0  0  0  0  0  0  0  0  0  0  0
    0.4146    1.6795   -5.7216 N   0  0  0  0  0  0  0  0  0  0  0  0
    1.2268    2.5799   -6.3436 C   0  0  0  0  0  0  0  0  0  0  0  0
    2.4816    2.0531   -6.3487 C   0  0  0  0  0  0  0  0  0  0  0  0
    2.4163    0.8407   -5.7276 N   0  0  0  0  0  0  0  0  0  0  0  0
    1.1578    0.6389   -5.3521 C   0  0  0  0  0  0  0  0  0  0  0  0
    3.5250   -0.0537   -5.5294 C   0  0  0  0  0  0  0  0  0  0  0  0
    0.1053   -0.6322    0.5649 H   0  0  0  0  0  0  0  0  0  0  0  0
    0.0218   -0.0509    2.2209 H   0  0  0  0  0  0  0  0  0  0  0  0
    1.5535    0.0019    1.3531 H   0  0  0  0  0  0  0  0  0  0  0  0
   -0.9321    1.6182    0.6097 H   0  0  0  0  0  0  0  0  0  0  0  0
    0.4168    2.2451    1.5437 H   0  0  0  0  0  0  0  0  0  0  0  0
    0.6561    2.9630   -0.7534 H   0  0  0  0  0  0  0  0  0  0  0  0
    1.9670    1.8781   -0.3068 H   0  0  0  0  0  0  0  0  0  0  0  0
    1.2309    1.3871   -2.5552 H   0  0  0  0  0  0  0  0  0  0  0  0
    0.9232    0.0190   -1.4980 H   0  0  0  0  0  0  0  0  0  0  0  0
   -0.9527    0.3144   -3.0043 H   0  0  0  0  0  0  0  0  0  0  0  0
   -1.4433    0.5480   -1.3441 H   0  0  0  0  0  0  0  0  0  0  0  0
   -2.5243    2.1979   -2.8123 H   0  0  0  0  0  0  0  0  0  0  0  0
   -1.5636    2.9170   -1.5350 H   0  0  0  0  0  0  0  0  0  0  0  0
   -1.0036    4.2905   -3.2727 H   0  0  0  0  0  0  0  0  0  0  0  0
    0.3041    3.1081   -3.4356 H   0  0  0  0  0  0  0  0  0  0  0  0
   -1.3824    1.0388   -4.8879 H   0  0  0  0  0  0  0  0  0  0  0  0
   -1.5380    1.9545   -6.4222 H   0  0  0  0  0  0  0  0  0  0  0  0
    0.8551    3.5127   -6.7170 H   0  0  0  0  0  0  0  0  0  0  0  0
    3.3954    2.4494   -6.7426 H   0  0  0  0  0  0  0  0  0  0  0  0
    0.7971   -0.2308   -4.8375 H   0  0  0  0  0  0  0  0  0  0  0  0
    3.2115   -0.9071   -4.9324 H   0  0  0  0  0  0  0  0  0  0  0  0
    3.8973   -0.4089   -6.4913 H   0  0  0  0  0  0  0  0  0  0  0  0
    4.3353    0.4643   -5.0158 H   0  0  0  0  0  0  0  0  0  0  0  0
  1  2  1  0  0  0  0
  2  3  1  0  0  0  0
  3  4  1  0  0  0  0
  4  5  1  0  0  0  0
  5  6  1  0  0  0  0
  6  7  1  0  0  0  0
  7  8  1  0  0  0  0
  8  9  1  0  0  0  0
  9 10  1  0  0  0  0
 10 11  4  0  0  0  0
 11 12  2  0  0  0  0
 12 13  4  0  0  0  0
 10 14  4  0  0  0  0
 13 14  4  0  0  0  0
 13 15  1  0  0  0  0
  1 16  1  0  0  0  0
  1 17  1  0  0  0  0
  1 18  1  0  0  0  0
  2 19  1  0  0  0  0
  2 20  1  0  0  0  0
  3 21  1  0  0  0  0
  3 22  1  0  0  0  0
  4 23  1  0  0  0  0
  4 24  1  0  0  0  0
  5 25  1  0  0  0  0
  5 26  1  0  0  0  0
  6 27  1  0  0  0  0
  6 28  1  0  0  0  0
  7 29  1  0  0  0  0
  7 30  1  0  0  0  0
  9 31  1  0  0  0  0
  9 32  1  0  0  0  0
 11 33  1  0  0  0  0
 12 34  1  0  0  0  0
 14 35  1  0  0  0  0
 15 36  1  0  0  0  0
 15 37  1  0  0  0  0
 15 38  1  0  0  0  0
M  CHG  1   1   1
M  END
