 xtb: 6.7.1 (edcfbbe)
          12202402033D

 25 26  0     0  0            999 V2000
   -1.5411    2.5420    0.0125 C   0  0  0  0  0  0  0  0  0  0  0  0
   -1.1367    1.1577    0.0196 N   0  0  0  0  0  0  0  0  0  0  0  0
    0.1682    0.7142   -0.0202 C   0  0  0  0  0  0  0  0  0  0  0  0
    1.3836    1.3929   -0.0586 C   0  0  0  0  0  0  0  0  0  0  0  0
    2.5273    0.6249   -0.0858 C   0  0  0  0  0  0  0  0  0  0  0  0
    2.4806   -0.7750   -0.0743 C   0  0  0  0  0  0  0  0  0  0  0  0
    1.2861   -1.4604   -0.0371 C   0  0  0  0  0  0  0  0  0  0  0  0
    0.1237   -0.6950   -0.0119 C   0  0  0  0  0  0  0  0  0  0  0  0
   -1.2046   -1.0513    0.0269 N   0  0  0  0  0  0  0  0  0  0  0  0
   -1.9260    0.0763    0.0548 C   0  0  0  0  0  0  0  0  0  0  0  0
   -3.4371    0.0568    0.1332 C   0  0  0  0  0  0  0  0  0  0  0  0
   -3.9597   -0.4595   -0.9835 F   0  0  0  0  0  0  0  0  0  0  0  0
   -3.8349   -0.7095    1.1515 F   0  0  0  0  0  0  0  0  0  0  0  0
   -3.9547    1.2644    0.3051 F   0  0  0  0  0  0  0  0  0  0  0  0
   -1.6927   -2.4068    0.0487 C   0  0  0  0  0  0  0  0  0  0  0  0
   -2.0304    2.8084    0.9498 H   0  0  0  0  0  0  0  0  0  0  0  0
   -0.6585    3.1620   -0.1151 H   0  0  0  0  0  0  0  0  0  0  0  0
   -2.2327    2.7391   -0.8067 H   0  0  0  0  0  0  0  0  0  0  0  0
    1.4399    2.4688   -0.0632 H   0  0  0  0  0  0  0  0  0  0  0  0
    3.4881    1.1136   -0.1144 H   0  0  0  0  0  0  0  0  0  0  0  0
    3.4062   -1.3278   -0.0931 H   0  0  0  0  0  0  0  0  0  0  0  0
    1.2574   -2.5371   -0.0211 H   0  0  0  0  0  0  0  0  0  0  0  0
   -1.0340   -3.0279   -0.5565 H   0  0  0  0  0  0  0  0  0  0  0  0
   -1.7006   -2.7887    1.0718 H   0  0  0  0  0  0  0  0  0  0  0  0
   -2.7001   -2.4680   -0.3570 H   0  0  0  0  0  0  0  0  0  0  0  0
  1  2  1  0  0  0  0
  2  3  1  0  0  0  0
  3  4  4  0  0  0  0
  4  5  2  0  0  0  0
  5  6  4  0  0  0  0
  6  7  2  0  0  0  0
  3  8  4  0  0  0  0
  7  8  4  0  0  0  0
  8  9  1  0  0  0  0
  2 10  4  0  0  0  0
  9 10  4  0  0  0  0
 10 11  1  0  0  0  0
 11 12  1  0  0  0  0
 11 13  1  0  0  0  0
 11 14  1  0  0  0  0
  9 15  1  0  0  0  0
  1 16  1  0  0  0  0
  1 17  1  0  0  0  0
  1 18  1  0  0  0  0
  4 19  1  0  0  0  0
  5 20  1  0  0  0  0
  6 21  1  0  0  0  0
  7 22  1  0  0  0  0
 15 23  1  0  0  0  0
 15 24  1  0  0  0  0
 15 25  1  0  0  0  0
M  CHG  1   1   1
M  END
