33

C          1.11896       -0.19127        0.06797
C          0.42152        0.40090       -1.16070
C          0.83341       -0.20487       -2.50715
C          0.26170       -1.58181       -2.85734
C         -1.26177       -1.70933       -2.82253
C         -1.96387       -0.82062       -3.83605
N          0.61032       -1.50410        0.47186
C         -0.58692       -1.62544        1.01736
S         -0.94575       -3.25129        1.38974
C          0.59283       -3.78327        0.82313
C          1.33103       -2.68796        0.37462
C          2.63388       -2.88865       -0.12416
C          3.15018       -4.18964       -0.17012
C          2.39496       -5.27115        0.27193
C          1.10640       -5.08829        0.77893
H          0.96142        0.48504        0.91979
H          2.20108       -0.21912       -0.08631
H         -0.66594        0.38023       -1.04022
H          0.69651        1.46363       -1.19596
H          0.53806        0.49799       -3.29624
H          1.92828       -0.25915       -2.55591
H          0.61175       -1.84714       -3.86346
H          0.68709       -2.33868       -2.19672
H         -1.52370       -2.75279       -3.03664
H         -1.64677       -1.49769       -1.82050
H         -1.60318       -1.02253       -4.84965
H         -3.04195       -1.00994       -3.81746
H         -1.80774        0.23943       -3.61671
H         -1.27381       -0.80664        1.19882
H          3.25405       -2.07710       -0.49276
H          4.15284       -4.36197       -0.56177
H          2.81304       -6.27701        0.22223
H          0.52222       -5.93882        1.12351
