39

C          1.21605        0.01779       -0.18973
O          0.77153       -0.46094        1.08498
C          1.75674       -0.96483        1.87207
O          2.95295       -0.95641        1.61389
C          1.19443       -1.44690        3.20575
N          1.23212       -0.41710        4.38348
C          0.21345        0.70646        4.18878
C         -1.29747        0.59692        3.98908
C         -1.83534        1.87773        3.66125
C         -3.18713        2.09729        3.44807
C         -4.06435        1.03681        3.55384
C         -3.60864       -0.24297        3.87853
C         -2.22088       -0.50491        4.11530
C         -1.93911       -1.85910        4.45395
C         -2.91540       -2.86237        4.53632
C         -4.23857       -2.55992        4.28895
C         -4.57916       -1.25519        3.96522
C          1.08577       -1.05342        5.76101
C          2.64623        0.22651        4.37908
H          0.39296        0.57244       -0.64807
H          1.47160       -0.82914       -0.83336
H          2.06976        0.69470       -0.08296
H          0.17212       -1.77595        3.04310
H          1.77976       -2.31761        3.52268
H          0.36261        1.36506        5.05673
H          0.59013        1.25069        3.31120
H         -1.18197        2.74835        3.57316
H         -3.55726        3.09036        3.20362
H         -5.12420        1.22446        3.38327
H         -0.94358       -2.20886        4.66527
H         -2.63628       -3.88164        4.79472
H         -5.00497       -3.32856        4.34910
H         -5.62998       -1.03335        3.77890
H          1.60310       -2.01609        5.76183
H          1.53513       -0.38951        6.50729
H          0.03708       -1.16160        6.02430
H          3.38488       -0.57596        4.46304
H          2.78034        0.79946        3.45811
H          2.71935        0.90871        5.23212
