 xtb: 6.7.1 (edcfbbe)
          12202402033D

 21 21  0     0  0            999 V2000
    1.1520    0.2477    0.3636 N   0  0  0  0  0  0  0  0  0  0  0  0
    2.2658    0.0924    0.1670 C   0  0  0  0  0  0  0  0  0  0  0  0
    3.6927   -0.0077   -0.0328 C   0  0  0  0  0  0  0  0  0  0  0  0
    4.3443    1.3824    0.0891 C   0  0  0  0  0  0  0  0  0  0  0  0
    4.0158    1.9826    1.3741 N   0  0  0  0  0  0  0  0  0  0  0  0
    4.8076    1.7622    2.4270 C   0  0  0  0  0  0  0  0  0  0  0  0
    4.4607    2.2581    3.6742 C   0  0  0  0  0  0  0  0  0  0  0  0
    3.2896    2.9620    3.8355 C   0  0  0  0  0  0  0  0  0  0  0  0
    2.4485    3.1851    2.7234 C   0  0  0  0  0  0  0  0  0  0  0  0
    2.8797    2.6726    1.4896 C   0  0  0  0  0  0  0  0  0  0  0  0
    1.3032    3.8679    2.8236 N   0  0  0  0  0  0  0  0  0  0  0  0
    4.1019   -0.6984    0.7098 H   0  0  0  0  0  0  0  0  0  0  0  0
    3.8876   -0.4151   -1.0272 H   0  0  0  0  0  0  0  0  0  0  0  0
    5.4279    1.2864    0.0005 H   0  0  0  0  0  0  0  0  0  0  0  0
    3.9812    2.0319   -0.7106 H   0  0  0  0  0  0  0  0  0  0  0  0
    5.7123    1.1977    2.2701 H   0  0  0  0  0  0  0  0  0  0  0  0
    5.1149    2.0796    4.5118 H   0  0  0  0  0  0  0  0  0  0  0  0
    3.0066    3.3450    4.8031 H   0  0  0  0  0  0  0  0  0  0  0  0
    2.2858    2.8191    0.6008 H   0  0  0  0  0  0  0  0  0  0  0  0
    0.9809    4.1955    3.7184 H   0  0  0  0  0  0  0  0  0  0  0  0
    0.6838    3.9628    2.0372 H   0  0  0  0  0  0  0  0  0  0  0  0
  1  2  3  0  0  0  0
  2  3  1  0  0  0  0
  3  4  1  0  0  0  0
  4  5  1  0  0  0  0
  5  6  4  0  0  0  0
  6  7  4  0  0  0  0
  7  8  4  0  0  0  0
  8  9  4  0  0  0  0
  5 10  4  0  0  0  0
  9 10  4  0  0  0  0
  9 11  4  0  0  0  0
  3 12  1  0  0  0  0
  3 13  1  0  0  0  0
  4 14  1  0  0  0  0
  4 15  1  0  0  0  0
  6 16  1  0  0  0  0
  7 17  1  0  0  0  0
  8 18  1  0  0  0  0
 10 19  1  0  0  0  0
 11 20  1  0  0  0  0
 11 21  1  0  0  0  0
M  CHG  1   1   1
M  END
