 xtb: 6.7.1 (edcfbbe)
          12202402033D

 47 46  0     0  0            999 V2000
    1.0911    0.2080   -0.0795 C   0  0  0  0  0  0  0  0  0  0  0  0
    0.1492    1.2331    0.5755 C   0  0  0  0  0  0  0  0  0  0  0  0
    0.3569    2.6690    0.0900 C   0  0  0  0  0  0  0  0  0  0  0  0
   -0.2863    2.9395   -1.2631 C   0  0  0  0  0  0  0  0  0  0  0  0
    0.4619   -0.8380   -1.4624 P   0  0  0  0  0  0  0  0  0  0  0  0
    1.0849   -2.5117   -1.0164 C   0  0  0  0  0  0  0  0  0  0  0  0
    0.4478   -3.0098    0.2672 C   0  0  0  0  0  0  0  0  0  0  0  0
   -0.7054   -3.3142    0.3679 O   0  0  0  0  0  0  0  0  0  0  0  0
    1.3211   -3.0287    1.2662 O   0  0  0  0  0  0  0  0  0  0  0  0
   -1.3576   -1.0639   -1.4790 C   0  0  0  0  0  0  0  0  0  0  0  0
   -2.2735   -0.0283   -2.1309 C   0  0  0  0  0  0  0  0  0  0  0  0
   -2.2419   -0.0162   -3.6591 C   0  0  0  0  0  0  0  0  0  0  0  0
   -2.7090   -1.3226   -4.2903 C   0  0  0  0  0  0  0  0  0  0  0  0
    1.2743   -0.6650   -3.1095 C   0  0  0  0  0  0  0  0  0  0  0  0
    1.5169    0.6925   -3.7712 C   0  0  0  0  0  0  0  0  0  0  0  0
    2.6082    1.5532   -3.1308 C   0  0  0  0  0  0  0  0  0  0  0  0
    3.9540    0.8492   -3.0016 C   0  0  0  0  0  0  0  0  0  0  0  0
    1.3906   -0.5251    0.6759 H   0  0  0  0  0  0  0  0  0  0  0  0
    2.0035    0.6999   -0.4222 H   0  0  0  0  0  0  0  0  0  0  0  0
   -0.8951    0.9477    0.4386 H   0  0  0  0  0  0  0  0  0  0  0  0
    0.3484    1.2100    1.6479 H   0  0  0  0  0  0  0  0  0  0  0  0
   -0.0738    3.3494    0.8251 H   0  0  0  0  0  0  0  0  0  0  0  0
    1.4271    2.8815    0.0473 H   0  0  0  0  0  0  0  0  0  0  0  0
   -1.3669    3.0117   -1.1640 H   0  0  0  0  0  0  0  0  0  0  0  0
    0.0719    3.8780   -1.6765 H   0  0  0  0  0  0  0  0  0  0  0  0
   -0.0506    2.1419   -1.9667 H   0  0  0  0  0  0  0  0  0  0  0  0
    0.8316   -3.2031   -1.8240 H   0  0  0  0  0  0  0  0  0  0  0  0
    2.1696   -2.4710   -0.8914 H   0  0  0  0  0  0  0  0  0  0  0  0
    0.9344   -3.3899    2.0822 H   0  0  0  0  0  0  0  0  0  0  0  0
   -1.5178   -2.0399   -1.9468 H   0  0  0  0  0  0  0  0  0  0  0  0
   -1.6272   -1.1778   -0.4232 H   0  0  0  0  0  0  0  0  0  0  0  0
   -3.2909   -0.2705   -1.8155 H   0  0  0  0  0  0  0  0  0  0  0  0
   -2.0477    0.9697   -1.7589 H   0  0  0  0  0  0  0  0  0  0  0  0
   -2.9030    0.7850   -3.9932 H   0  0  0  0  0  0  0  0  0  0  0  0
   -1.2389    0.2239   -4.0138 H   0  0  0  0  0  0  0  0  0  0  0  0
   -3.6863   -1.6033   -3.9067 H   0  0  0  0  0  0  0  0  0  0  0  0
   -2.7916   -1.2033   -5.3670 H   0  0  0  0  0  0  0  0  0  0  0  0
   -2.0165   -2.1401   -4.1007 H   0  0  0  0  0  0  0  0  0  0  0  0
    2.2365   -1.1737   -3.0025 H   0  0  0  0  0  0  0  0  0  0  0  0
    0.6506   -1.2793   -3.7686 H   0  0  0  0  0  0  0  0  0  0  0  0
    1.8183    0.4774   -4.7996 H   0  0  0  0  0  0  0  0  0  0  0  0
    0.5947    1.2727   -3.8258 H   0  0  0  0  0  0  0  0  0  0  0  0
    2.7346    2.4313   -3.7660 H   0  0  0  0  0  0  0  0  0  0  0  0
    2.2849    1.9136   -2.1544 H   0  0  0  0  0  0  0  0  0  0  0  0
    4.2507    0.4106   -3.9511 H   0  0  0  0  0  0  0  0  0  0  0  0
    4.7167    1.5666   -2.7121 H   0  0  0  0  0  0  0  0  0  0  0  0
    3.9353    0.0663   -2.2451 H   0  0  0  0  0  0  0  0  0  0  0  0
  1  2  1  0  0  0  0
  2  3  1  0  0  0  0
  3  4  1  0  0  0  0
  1  5  1  0  0  0  0
  5  6  1  0  0  0  0
  6  7  1  0  0  0  0
  7  8  2  0  0  0  0
  7  9  1  0  0  0  0
  5 10  1  0  0  0  0
 10 11  1  0  0  0  0
 11 12  1  0  0  0  0
 12 13  1  0  0  0  0
  5 14  1  0  0  0  0
 14 15  1  0  0  0  0
 15 16  1  0  0  0  0
 16 17  1  0  0  0  0
  1 18  1  0  0  0  0
  1 19  1  0  0  0  0
  2 20  1  0  0  0  0
  2 21  1  0  0  0  0
  3 22  1  0  0  0  0
  3 23  1  0  0  0  0
  4 24  1  0  0  0  0
  4 25  1  0  0  0  0
  4 26  1  0  0  0  0
  6 27  1  0  0  0  0
  6 28  1  0  0  0  0
  9 29  1  0  0  0  0
 10 30  1  0  0  0  0
 10 31  1  0  0  0  0
 11 32  1  0  0  0  0
 11 33  1  0  0  0  0
 12 34  1  0  0  0  0
 12 35  1  0  0  0  0
 13 36  1  0  0  0  0
 13 37  1  0  0  0  0
 13 38  1  0  0  0  0
 14 39  1  0  0  0  0
 14 40  1  0  0  0  0
 15 41  1  0  0  0  0
 15 42  1  0  0  0  0
 16 43  1  0  0  0  0
 16 44  1  0  0  0  0
 17 45  1  0  0  0  0
 17 46  1  0  0  0  0
 17 47  1  0  0  0  0
M  CHG  1   1   1
M  END
