47

C          1.01715        0.17055       -0.12264
C          0.10173        1.24969        0.45405
C          0.36163        2.67184       -0.04907
C         -0.40117        3.03030       -1.30877
P          0.48036       -0.90108       -1.42643
C          1.11140       -2.52940       -0.91255
C          0.50535       -3.12955        0.31993
O         -0.61060       -3.60733        0.41847
O          1.32697       -3.08650        1.38500
C         -1.26680       -1.18024       -1.54087
C         -2.22087       -0.11850       -2.06570
C         -2.26038        0.08258       -3.57788
C         -2.72626       -1.13672       -4.35506
C          1.30817       -0.72065       -2.98715
C          1.52329        0.62547       -3.66180
C          2.62135        1.51885       -3.08576
C          4.01061        0.90345       -3.11927
H          1.22037       -0.49315        0.72651
H          2.00211        0.58286       -0.35728
H         -0.95168        0.97650        0.35716
H          0.29850        1.27845        1.53515
H          0.05193        3.37743        0.73212
H          1.43404        2.83595       -0.19827
H         -1.47804        3.06174       -1.11573
H         -0.09904        4.01843       -1.66933
H         -0.21796        2.31053       -2.10324
H          0.95853       -3.24809       -1.72611
H          2.19685       -2.45608       -0.77575
H          0.79932       -3.49071        2.10556
H         -1.42874       -2.11119       -2.09485
H         -1.59775       -1.39403       -0.51721
H         -3.23485       -0.38661       -1.73984
H         -1.99993        0.83753       -1.59254
H         -2.94888        0.90998       -3.79075
H         -1.28619        0.39064       -3.95300
H         -3.68881       -1.49938       -3.98186
H         -2.84860       -0.87871       -5.41218
H         -1.99818       -1.95050       -4.29628
H          2.28031       -1.22035       -2.91258
H          0.73594       -1.34098       -3.68949
H          1.77289        0.43469       -4.71419
H          0.59326        1.19151       -3.67527
H          2.64390        2.44627       -3.67167
H          2.38063        1.81496       -2.06500
H          4.27246        0.57648       -4.13037
H          4.75343        1.64226       -2.80070
H          4.08797        0.04724       -2.44334
