 xtb: 6.7.1 (edcfbbe)
          12202402033D

 26 26  0     0  0            999 V2000
    1.0899    0.0315    0.0343 C   0  0  0  0  0  0  0  0  0  0  0  0
   -0.0491    0.0581    0.0586 N   0  0  0  0  0  0  0  0  0  0  0  0
    2.5407    0.0133   -0.0302 C   0  0  0  0  0  0  0  0  0  0  0  0
    3.0447    0.7084   -1.2491 N   0  0  0  0  0  0  0  0  0  0  0  0
    2.5915    2.1322   -1.2207 C   0  0  0  0  0  0  0  0  0  0  0  0
    3.1798    2.9738   -2.3471 C   0  0  0  0  0  0  0  0  0  0  0  0
    4.7041    2.9192   -2.3155 C   0  0  0  0  0  0  0  0  0  0  0  0
    5.1706    1.4676   -2.3674 C   0  0  0  0  0  0  0  0  0  0  0  0
    4.5387    0.6604   -1.2389 C   0  0  0  0  0  0  0  0  0  0  0  0
    2.4977    0.0133   -2.4465 C   0  0  0  0  0  0  0  0  0  0  0  0
    2.9210   -1.3742   -2.4955 C   0  0  0  0  0  0  0  0  0  0  0  0
    3.2696   -2.4591   -2.5137 N   0  0  0  0  0  0  0  0  0  0  0  0
    2.9351    0.5021    0.8669 H   0  0  0  0  0  0  0  0  0  0  0  0
    2.8765   -1.0307   -0.0341 H   0  0  0  0  0  0  0  0  0  0  0  0
    2.9102    2.5545   -0.2641 H   0  0  0  0  0  0  0  0  0  0  0  0
    1.4995    2.1494   -1.2552 H   0  0  0  0  0  0  0  0  0  0  0  0
    2.8393    3.9992   -2.2014 H   0  0  0  0  0  0  0  0  0  0  0  0
    2.8065    2.6539   -3.3208 H   0  0  0  0  0  0  0  0  0  0  0  0
    5.1137    3.4715   -3.1592 H   0  0  0  0  0  0  0  0  0  0  0  0
    5.0711    3.3920   -1.4030 H   0  0  0  0  0  0  0  0  0  0  0  0
    4.9494    1.0284   -3.3411 H   0  0  0  0  0  0  0  0  0  0  0  0
    6.2521    1.4174   -2.2393 H   0  0  0  0  0  0  0  0  0  0  0  0
    4.8514   -0.3851   -1.2968 H   0  0  0  0  0  0  0  0  0  0  0  0
    4.8719    1.0707   -0.2825 H   0  0  0  0  0  0  0  0  0  0  0  0
    1.4022    0.0458   -2.4208 H   0  0  0  0  0  0  0  0  0  0  0  0
    2.8400    0.5115   -3.3569 H   0  0  0  0  0  0  0  0  0  0  0  0
  1  2  3  0  0  0  0
  1  3  1  0  0  0  0
  3  4  1  0  0  0  0
  4  5  1  0  0  0  0
  5  6  1  0  0  0  0
  6  7  1  0  0  0  0
  7  8  1  0  0  0  0
  4  9  1  0  0  0  0
  8  9  1  0  0  0  0
  4 10  1  0  0  0  0
 10 11  1  0  0  0  0
 11 12  3  0  0  0  0
  3 13  1  0  0  0  0
  3 14  1  0  0  0  0
  5 15  1  0  0  0  0
  5 16  1  0  0  0  0
  6 17  1  0  0  0  0
  6 18  1  0  0  0  0
  7 19  1  0  0  0  0
  7 20  1  0  0  0  0
  8 21  1  0  0  0  0
  8 22  1  0  0  0  0
  9 23  1  0  0  0  0
  9 24  1  0  0  0  0
 10 25  1  0  0  0  0
 10 26  1  0  0  0  0
M  CHG  1   1   1
M  END
