 xtb: 6.7.1 (edcfbbe)
          12202402033D

 42 43  0     0  0            999 V2000
    1.5569    1.2904   -0.7058 C   0  0  0  0  0  0  0  0  0  0  0  0
    1.2649    1.0689   -1.9726 C   0  0  0  0  0  0  0  0  0  0  0  0
   -0.0693    0.9483   -2.6554 C   0  0  0  0  0  0  0  0  0  0  0  0
   -1.2808    1.3600   -1.8873 N   0  0  0  0  0  0  0  0  0  0  0  0
   -1.4030    0.6134   -0.6162 C   0  0  0  0  0  0  0  0  0  0  0  0
   -1.7925    1.2376    0.5660 C   0  0  0  0  0  0  0  0  0  0  0  0
   -1.9228    0.5093    1.7268 C   0  0  0  0  0  0  0  0  0  0  0  0
   -1.6768   -0.8689    1.7527 C   0  0  0  0  0  0  0  0  0  0  0  0
   -1.3153   -1.4937    0.5581 C   0  0  0  0  0  0  0  0  0  0  0  0
   -1.1898   -0.7589   -0.6054 C   0  0  0  0  0  0  0  0  0  0  0  0
   -1.8166   -1.4748    2.9354 O   0  0  0  0  0  0  0  0  0  0  0  0
   -1.5625   -2.8619    3.0451 C   0  0  0  0  0  0  0  0  0  0  0  0
   -2.4965    1.0441   -2.7266 C   0  0  0  0  0  0  0  0  0  0  0  0
   -3.7846    1.4729   -2.0770 C   0  0  0  0  0  0  0  0  0  0  0  0
   -4.3615    2.6959   -2.4062 C   0  0  0  0  0  0  0  0  0  0  0  0
   -5.5430    3.0970   -1.8081 C   0  0  0  0  0  0  0  0  0  0  0  0
   -6.1586    2.2812   -0.8735 C   0  0  0  0  0  0  0  0  0  0  0  0
   -5.5989    1.0558   -0.5527 C   0  0  0  0  0  0  0  0  0  0  0  0
   -4.4207    0.6497   -1.1539 C   0  0  0  0  0  0  0  0  0  0  0  0
   -1.2076    2.8205   -1.6926 C   0  0  0  0  0  0  0  0  0  0  0  0
    0.8279    1.4279    0.0738 H   0  0  0  0  0  0  0  0  0  0  0  0
    2.5846    1.3316   -0.3907 H   0  0  0  0  0  0  0  0  0  0  0  0
    2.0700    0.9223   -2.6811 H   0  0  0  0  0  0  0  0  0  0  0  0
   -0.0397    1.5576   -3.5642 H   0  0  0  0  0  0  0  0  0  0  0  0
   -0.1881   -0.0885   -2.9813 H   0  0  0  0  0  0  0  0  0  0  0  0
   -1.9952    2.2932    0.6139 H   0  0  0  0  0  0  0  0  0  0  0  0
   -2.2173    0.9921    2.6438 H   0  0  0  0  0  0  0  0  0  0  0  0
   -1.1311   -2.5546    0.5208 H   0  0  0  0  0  0  0  0  0  0  0  0
   -0.9172   -1.2953   -1.4999 H   0  0  0  0  0  0  0  0  0  0  0  0
   -2.2595   -3.4438    2.4365 H   0  0  0  0  0  0  0  0  0  0  0  0
   -0.5341   -3.1016    2.7630 H   0  0  0  0  0  0  0  0  0  0  0  0
   -1.7136   -3.1031    4.0951 H   0  0  0  0  0  0  0  0  0  0  0  0
   -2.3770    1.5501   -3.6872 H   0  0  0  0  0  0  0  0  0  0  0  0
   -2.5095   -0.0344   -2.8937 H   0  0  0  0  0  0  0  0  0  0  0  0
   -3.8977    3.3319   -3.1469 H   0  0  0  0  0  0  0  0  0  0  0  0
   -5.9835    4.0445   -2.0763 H   0  0  0  0  0  0  0  0  0  0  0  0
   -7.0790    2.5944   -0.4066 H   0  0  0  0  0  0  0  0  0  0  0  0
   -6.0839    0.4093    0.1615 H   0  0  0  0  0  0  0  0  0  0  0  0
   -4.0027   -0.3158   -0.9112 H   0  0  0  0  0  0  0  0  0  0  0  0
   -2.1352    3.1945   -1.2663 H   0  0  0  0  0  0  0  0  0  0  0  0
   -0.3693    3.0698   -1.0471 H   0  0  0  0  0  0  0  0  0  0  0  0
   -1.0585    3.3016   -2.6580 H   0  0  0  0  0  0  0  0  0  0  0  0
  1  2  2  0  0  0  0
  2  3  1  0  0  0  0
  3  4  1  0  0  0  0
  4  5  1  0  0  0  0
  5  6  4  0  0  0  0
  6  7  4  0  0  0  0
  7  8  4  0  0  0  0
  8  9  4  0  0  0  0
  5 10  4  0  0  0  0
  9 10  4  0  0  0  0
  8 11  1  0  0  0  0
 11 12  1  0  0  0  0
  4 13  1  0  0  0  0
 13 14  1  0  0  0  0
 14 15  4  0  0  0  0
 15 16  4  0  0  0  0
 16 17  4  0  0  0  0
 17 18  4  0  0  0  0
 14 19  4  0  0  0  0
 18 19  4  0  0  0  0
  4 20  1  0  0  0  0
  1 21  1  0  0  0  0
  1 22  1  0  0  0  0
  2 23  1  0  0  0  0
  3 24  1  0  0  0  0
  3 25  1  0  0  0  0
  6 26  1  0  0  0  0
  7 27  1  0  0  0  0
  9 28  1  0  0  0  0
 10 29  1  0  0  0  0
 12 30  1  0  0  0  0
 12 31  1  0  0  0  0
 12 32  1  0  0  0  0
 13 33  1  0  0  0  0
 13 34  1  0  0  0  0
 15 35  1  0  0  0  0
 16 36  1  0  0  0  0
 17 37  1  0  0  0  0
 18 38  1  0  0  0  0
 19 39  1  0  0  0  0
 20 40  1  0  0  0  0
 20 41  1  0  0  0  0
 20 42  1  0  0  0  0
M  CHG  1   1   1
M  END
