 xtb: 6.7.1 (edcfbbe)
          12202402033D

 31 31  0     0  0            999 V2000
    0.6345   -0.1364    0.1661 C   0  0  0  0  0  0  0  0  0  0  0  0
    0.0319    1.1448    0.7219 C   0  0  0  0  0  0  0  0  0  0  0  0
    0.2473   -0.5316   -1.2383 N   0  0  0  0  0  0  0  0  0  0  0  0
    0.3012   -2.0264   -1.3005 C   0  0  0  0  0  0  0  0  0  0  0  0
   -0.1688   -2.6165   -2.6251 C   0  0  0  0  0  0  0  0  0  0  0  0
   -1.5971   -2.1700   -2.9195 C   0  0  0  0  0  0  0  0  0  0  0  0
   -1.6787   -0.6481   -2.8723 C   0  0  0  0  0  0  0  0  0  0  0  0
   -1.1480   -0.1122   -1.5454 C   0  0  0  0  0  0  0  0  0  0  0  0
    1.2251    0.0051   -2.2288 C   0  0  0  0  0  0  0  0  0  0  0  0
    1.4841    1.5125   -2.2290 C   0  0  0  0  0  0  0  0  0  0  0  0
    2.3156    1.8363   -1.1417 O   0  0  0  0  0  0  0  0  0  0  0  0
    0.3449   -0.9533    0.8287 H   0  0  0  0  0  0  0  0  0  0  0  0
    1.7203   -0.0439    0.1828 H   0  0  0  0  0  0  0  0  0  0  0  0
    0.2914    2.0171    0.1342 H   0  0  0  0  0  0  0  0  0  0  0  0
   -1.0464    1.0874    0.8380 H   0  0  0  0  0  0  0  0  0  0  0  0
    0.4597    1.2888    1.7113 H   0  0  0  0  0  0  0  0  0  0  0  0
   -0.3547   -2.4074   -0.5142 H   0  0  0  0  0  0  0  0  0  0  0  0
    1.3228   -2.3410   -1.0790 H   0  0  0  0  0  0  0  0  0  0  0  0
   -0.1301   -3.7022   -2.5316 H   0  0  0  0  0  0  0  0  0  0  0  0
    0.4950   -2.3448   -3.4456 H   0  0  0  0  0  0  0  0  0  0  0  0
   -1.9096   -2.5309   -3.8979 H   0  0  0  0  0  0  0  0  0  0  0  0
   -2.2743   -2.5966   -2.1775 H   0  0  0  0  0  0  0  0  0  0  0  0
   -1.1417   -0.2137   -3.7163 H   0  0  0  0  0  0  0  0  0  0  0  0
   -2.7177   -0.3293   -2.9607 H   0  0  0  0  0  0  0  0  0  0  0  0
   -1.1965    0.9758   -1.5422 H   0  0  0  0  0  0  0  0  0  0  0  0
   -1.7787   -0.4909   -0.7383 H   0  0  0  0  0  0  0  0  0  0  0  0
    2.1856   -0.4776   -2.0336 H   0  0  0  0  0  0  0  0  0  0  0  0
    0.8880   -0.2788   -3.2233 H   0  0  0  0  0  0  0  0  0  0  0  0
    1.9847    1.7398   -3.1789 H   0  0  0  0  0  0  0  0  0  0  0  0
    0.5483    2.0876   -2.2009 H   0  0  0  0  0  0  0  0  0  0  0  0
    2.6999    2.7108   -1.2618 H   0  0  0  0  0  0  0  0  0  0  0  0
  1  2  1  0  0  0  0
  1  3  1  0  0  0  0
  3  4  1  0  0  0  0
  4  5  1  0  0  0  0
  5  6  1  0  0  0  0
  6  7  1  0  0  0  0
  3  8  1  0  0  0  0
  7  8  1  0  0  0  0
  3  9  1  0  0  0  0
  9 10  1  0  0  0  0
 10 11  1  0  0  0  0
  1 12  1  0  0  0  0
  1 13  1  0  0  0  0
  2 14  1  0  0  0  0
  2 15  1  0  0  0  0
  2 16  1  0  0  0  0
  4 17  1  0  0  0  0
  4 18  1  0  0  0  0
  5 19  1  0  0  0  0
  5 20  1  0  0  0  0
  6 21  1  0  0  0  0
  6 22  1  0  0  0  0
  7 23  1  0  0  0  0
  7 24  1  0  0  0  0
  8 25  1  0  0  0  0
  8 26  1  0  0  0  0
  9 27  1  0  0  0  0
  9 28  1  0  0  0  0
 10 29  1  0  0  0  0
 10 30  1  0  0  0  0
 11 31  1  0  0  0  0
M  CHG  1   1   1
M  END
