21

Cl         1.01960       -0.04639       -0.00405
C          2.78581        0.11543       -0.05169
C          3.31348        0.89573        1.14747
C          2.91861        0.34484        2.51628
N          3.41486       -1.04059        2.70636
C          4.72432       -1.25234        2.98244
C          5.20866       -2.54003        3.17890
C          4.33428       -3.61571        3.10254
C          2.99120       -3.38403        2.83812
C          2.54757       -2.08056        2.64832
H          3.21446       -0.89024       -0.08994
H          3.04868        0.62845       -0.98176
H          4.40657        0.94013        1.07159
H          2.95993        1.93238        1.08173
H          3.36533        0.94983        3.31467
H          1.83626        0.35671        2.67879
H          5.37446       -0.38398        3.04303
H          6.26220       -2.70515        3.39527
H          4.69684       -4.63164        3.25584
H          2.29132       -4.21561        2.78376
H          1.50212       -1.86217        2.44719
