42

C          1.68742        1.13644       -0.87763
C          1.19634        0.95025       -2.11174
C         -0.21586        0.85278       -2.61828
N         -1.42593        1.21877       -1.72444
C         -1.53116        0.33877       -0.48775
C         -2.27018        0.76209        0.62662
C         -2.33321       -0.01677        1.78820
C         -1.64775       -1.22461        1.87044
C         -0.96500       -1.69250        0.75390
C         -0.92327       -0.92548       -0.42084
O         -1.74704       -1.87771        3.06372
C         -0.63072       -2.69176        3.41637
C         -2.69453        0.97711       -2.59548
C         -3.98878        1.64129       -2.19084
C         -4.26369        2.96412       -2.58311
C         -5.46105        3.58172       -2.22053
C         -6.40790        2.88075       -1.47988
C         -6.15982        1.56276       -1.10250
C         -4.95794        0.94433       -1.45464
C         -1.27386        2.68972       -1.33703
H          1.08116        1.24250        0.01374
H          2.76482        1.17359       -0.72219
H          1.93930        0.84289       -2.90576
H         -0.27856        1.53284       -3.47952
H         -0.39499       -0.15120       -3.02335
H         -2.82850        1.69299        0.63650
H         -2.90870        0.33125        2.64496
H         -0.46318       -2.65674        0.76671
H         -0.37548       -1.35755       -1.25138
H         -0.63365       -3.62604        2.84689
H          0.31494       -2.15422        3.28233
H         -0.72299       -2.94440        4.47709
H         -2.44987        1.33010       -3.60642
H         -2.82709       -0.11023       -2.68019
H         -3.55582        3.53118       -3.18484
H         -5.66513        4.60636       -2.52578
H         -7.34774        3.35764       -1.20825
H         -6.91318        1.01396       -0.54025
H         -4.80129       -0.09091       -1.15564
H         -2.17049        3.05225       -0.83151
H         -0.41942        2.81017       -0.66821
H         -1.11893        3.27190       -2.25093
