 xtb: 6.7.1 (edcfbbe)
          12202402033D

 37 38  0     0  0            999 V2000
   -0.1046   -0.1874   -0.3775 C   0  0  0  0  0  0  0  0  0  0  0  0
    0.0786   -1.6009   -0.1802 N   0  0  0  0  0  0  0  0  0  0  0  0
    1.2550   -2.2291   -0.0753 C   0  0  0  0  0  0  0  0  0  0  0  0
    1.0168   -3.5369    0.0781 N   0  0  0  0  0  0  0  0  0  0  0  0
   -0.3332   -3.7394    0.0622 C   0  0  0  0  0  0  0  0  0  0  0  0
   -0.9211   -2.5263   -0.0933 C   0  0  0  0  0  0  0  0  0  0  0  0
    2.0122   -4.5828    0.0958 C   0  0  0  0  0  0  0  0  0  0  0  0
    2.6115   -4.7317   -1.2707 C   0  0  0  0  0  0  0  0  0  0  0  0
    2.4931   -3.7574   -2.1992 N   0  0  0  0  0  0  0  0  0  0  0  0
    3.0964   -4.1272   -3.2675 N   0  0  0  0  0  0  0  0  0  0  0  0
    3.6191   -5.3208   -3.0792 N   0  0  0  0  0  0  0  0  0  0  0  0
    3.3414   -5.7591   -1.8335 C   0  0  0  0  0  0  0  0  0  0  0  0
    4.3372   -6.0003   -4.1233 C   0  0  0  0  0  0  0  0  0  0  0  0
    3.5531   -7.2008   -4.6615 C   0  0  0  0  0  0  0  0  0  0  0  0
    2.1661   -6.8335   -5.1925 C   0  0  0  0  0  0  0  0  0  0  0  0
    2.2106   -5.8455   -6.3524 C   0  0  0  0  0  0  0  0  0  0  0  0
    2.5739   -1.5755   -0.1342 C   0  0  0  0  0  0  0  0  0  0  0  0
   -1.1641    0.0212   -0.5049 H   0  0  0  0  0  0  0  0  0  0  0  0
    0.4317    0.1413   -1.2679 H   0  0  0  0  0  0  0  0  0  0  0  0
    0.2614    0.3726    0.4844 H   0  0  0  0  0  0  0  0  0  0  0  0
   -0.7700   -4.7113    0.1630 H   0  0  0  0  0  0  0  0  0  0  0  0
   -1.9568   -2.2625   -0.1498 H   0  0  0  0  0  0  0  0  0  0  0  0
    2.7909   -4.3375    0.8269 H   0  0  0  0  0  0  0  0  0  0  0  0
    1.5354   -5.5157    0.4050 H   0  0  0  0  0  0  0  0  0  0  0  0
    3.6663   -6.7033   -1.4534 H   0  0  0  0  0  0  0  0  0  0  0  0
    4.5040   -5.2662   -4.9123 H   0  0  0  0  0  0  0  0  0  0  0  0
    5.3028   -6.3315   -3.7307 H   0  0  0  0  0  0  0  0  0  0  0  0
    4.1422   -7.6454   -5.4643 H   0  0  0  0  0  0  0  0  0  0  0  0
    3.4492   -7.9486   -3.8716 H   0  0  0  0  0  0  0  0  0  0  0  0
    1.6805   -7.7536   -5.5219 H   0  0  0  0  0  0  0  0  0  0  0  0
    1.5581   -6.4161   -4.3854 H   0  0  0  0  0  0  0  0  0  0  0  0
    2.8952   -6.1925   -7.1226 H   0  0  0  0  0  0  0  0  0  0  0  0
    1.2230   -5.7491   -6.7949 H   0  0  0  0  0  0  0  0  0  0  0  0
    2.5248   -4.8600   -6.0182 H   0  0  0  0  0  0  0  0  0  0  0  0
    3.3080   -2.1279    0.4465 H   0  0  0  0  0  0  0  0  0  0  0  0
    2.9193   -1.5555   -1.1696 H   0  0  0  0  0  0  0  0  0  0  0  0
    2.5196   -0.5559    0.2380 H   0  0  0  0  0  0  0  0  0  0  0  0
  1  2  1  0  0  0  0
  2  3  4  0  0  0  0
  3  4  4  0  0  0  0
  4  5  4  0  0  0  0
  2  6  4  0  0  0  0
  5  6  2  0  0  0  0
  4  7  1  0  0  0  0
  7  8  1  0  0  0  0
  8  9  4  0  0  0  0
  9 10  4  0  0  0  0
 10 11  4  0  0  0  0
  8 12  4  0  0  0  0
 11 12  4  0  0  0  0
 11 13  1  0  0  0  0
 13 14  1  0  0  0  0
 14 15  1  0  0  0  0
 15 16  1  0  0  0  0
  3 17  1  0  0  0  0
  1 18  1  0  0  0  0
  1 19  1  0  0  0  0
  1 20  1  0  0  0  0
  5 21  1  0  0  0  0
  6 22  1  0  0  0  0
  7 23  1  0  0  0  0
  7 24  1  0  0  0  0
 12 25  1  0  0  0  0
 13 26  1  0  0  0  0
 13 27  1  0  0  0  0
 14 28  1  0  0  0  0
 14 29  1  0  0  0  0
 15 30  1  0  0  0  0
 15 31  1  0  0  0  0
 16 32  1  0  0  0  0
 16 33  1  0  0  0  0
 16 34  1  0  0  0  0
 17 35  1  0  0  0  0
 17 36  1  0  0  0  0
 17 37  1  0  0  0  0
M  CHG  1   1   1
M  END
