26

C          1.03147       -0.05792       -0.07520
N         -0.22949       -0.05792       -0.07520
C          2.55147       -0.05792       -0.07520
N          3.07083        0.73763       -1.24899
C          2.60157        2.20169       -1.18641
C          3.20577        3.03059       -2.31466
C          4.72477        2.94792       -2.33853
C          5.20124        1.50325       -2.37784
C          4.60719        0.68519       -1.23959
C          2.41902       -0.01030       -2.38456
C          2.86170       -1.46436       -2.39646
N          3.22894       -2.67063       -2.40634
H          2.89348        0.45593        0.83248
H          2.97328       -1.06754       -0.04029
H          2.91073        2.59479       -0.21061
H          1.50869        2.22352       -1.24835
H          2.90332        4.07720       -2.19205
H          2.80316        2.70655       -3.28117
H          5.11325        3.49151       -3.20702
H          5.13038        3.44168       -1.44675
H          4.95021        1.05393       -3.34517
H          6.29470        1.48276       -2.30270
H          4.92876       -0.35962       -1.29355
H          4.92965        1.09008       -0.27222
H          1.33092        0.10477       -2.39629
H          2.77306        0.44219       -3.31717
