10

N          1.02832        0.05342        0.14936
C          0.36440        0.95542        0.86302
N         -0.96364        0.95542        0.86302
N          1.02832        1.85742        1.57669
H          0.54620       -0.64449       -0.40282
H          2.04008        0.03156        0.13207
H         -1.49344        1.63173        1.39812
H         -1.49344        0.27911        0.32793
H          2.04008        1.87928        1.59398
H          0.54620        2.55533        2.12887
