37

C          0.51841        0.13060        0.30790
N          0.31115       -1.31517        0.27350
C          1.28890       -2.23671        0.13268
N          0.68033       -3.44102        0.10164
C         -0.69335       -3.27659        0.19314
C         -0.92428       -1.93832        0.30710
C          1.34337       -4.73448       -0.13344
C          1.74646       -4.82752       -1.55979
N          0.81586       -4.67680       -2.55509
N          1.43697       -4.76890       -3.72098
N          2.73696       -4.99765       -3.47562
C          2.98595       -5.02471       -2.13267
C          3.68604       -5.10559       -4.56252
C          4.22300       -6.52150       -4.77181
C          3.17564       -7.55744       -5.18939
C          2.53013       -7.25918       -6.53364
C          2.75085       -1.95082        0.01374
H         -0.42234        0.64302        0.52633
H          0.89193        0.45651       -0.66658
H          1.24382        0.37394        1.08818
H         -1.33572       -4.13865        0.14347
H         -1.81695       -1.34330        0.38940
H          2.20130       -4.81640        0.54108
H          0.64919       -5.54480        0.11504
H          3.97604       -5.17956       -1.72860
H          3.21603       -4.71363       -5.47069
H          4.51520       -4.43156       -4.31628
H          5.01111       -6.48526       -5.53407
H          4.70142       -6.86911       -3.84752
H          3.66715       -8.53601       -5.25083
H          2.39903       -7.64668       -4.42165
H          3.28720       -7.13070       -7.31370
H          1.87786       -8.08746       -6.82853
H          1.91728       -6.35420       -6.49303
H          3.31123       -2.85745        0.23629
H          2.92618       -1.61451       -1.00886
H          2.99852       -1.17432        0.73807
