28

C          0.43894        1.43382       -0.43408
O          0.27186        0.26272        0.36171
C          0.99580        0.34939        1.58757
C          0.74271       -0.89004        2.46732
N          0.99417       -2.24568        1.76671
C          2.33505       -2.25405        1.04245
C         -0.14773       -2.59528        0.77522
C         -0.75737       -3.88967        1.29264
C          0.34983       -4.54786        2.08201
C          0.97039       -3.37680        2.81224
H         -0.13843        1.30843       -1.35379
H          1.49275        1.56778       -0.69623
H          0.06585        2.31399        0.09804
H          2.06559        0.45655        1.37602
H          0.67166        1.23936        2.13997
H          1.40007       -0.85826        3.34391
H         -0.29923       -0.91059        2.80750
H          2.29118       -1.56006        0.19930
H          3.10970       -1.95325        1.75371
H          2.52946       -3.26565        0.67452
H          0.28769       -2.72188       -0.22127
H         -0.89366       -1.79694        0.76155
H         -1.60578       -3.66359        1.95018
H         -1.12735       -4.52257        0.48075
H         -0.02589       -5.31059        2.76993
H          1.07489       -5.02198        1.41110
H          0.33268       -3.05368        3.64331
H          1.98586       -3.56391        3.17449
