 xtb: 6.7.1 (edcfbbe)
          12202402043D

 57 57  0     0  0            999 V2000
    1.1734   -0.2338   -0.4321 C   0  0  0  0  0  0  0  0  0  0  0  0
    0.8912   -1.2142    0.7001 C   0  0  0  0  0  0  0  0  0  0  0  0
    1.3659   -0.7127    2.0649 C   0  0  0  0  0  0  0  0  0  0  0  0
    0.7057    0.5827    2.5421 C   0  0  0  0  0  0  0  0  0  0  0  0
   -0.8194    0.5289    2.6485 C   0  0  0  0  0  0  0  0  0  0  0  0
   -1.3617   -0.5499    3.5879 C   0  0  0  0  0  0  0  0  0  0  0  0
   -0.9162   -0.4181    5.0457 C   0  0  0  0  0  0  0  0  0  0  0  0
   -1.3028    0.8989    5.7222 C   0  0  0  0  0  0  0  0  0  0  0  0
   -2.7986    1.2239    5.6957 C   0  0  0  0  0  0  0  0  0  0  0  0
   -3.6980    0.1554    6.3221 C   0  0  0  0  0  0  0  0  0  0  0  0
   -3.4749   -0.0729    7.8168 C   0  0  0  0  0  0  0  0  0  0  0  0
   -3.9138    1.1060    8.6977 C   0  0  0  0  0  0  0  0  0  0  0  0
   -5.3478    1.3052    8.6002 N   0  0  0  0  0  0  0  0  0  0  0  0
   -6.1741    0.5378    9.3236 C   0  0  0  0  0  0  0  0  0  0  0  0
   -7.5386    0.6324    9.1933 C   0  0  0  0  0  0  0  0  0  0  0  0
   -8.0992    1.5391    8.2872 C   0  0  0  0  0  0  0  0  0  0  0  0
   -7.2078    2.3237    7.5492 C   0  0  0  0  0  0  0  0  0  0  0  0
   -5.8514    2.1851    7.7248 C   0  0  0  0  0  0  0  0  0  0  0  0
   -9.5642    1.6319    8.0721 C   0  0  0  0  0  0  0  0  0  0  0  0
   -9.9736    0.8714    6.7922 C   0  0  0  0  0  0  0  0  0  0  0  0
   -9.7364   -0.6277    6.9054 C   0  0  0  0  0  0  0  0  0  0  0  0
    0.5866    0.6751   -0.3224 H   0  0  0  0  0  0  0  0  0  0  0  0
    0.9221   -0.6833   -1.3900 H   0  0  0  0  0  0  0  0  0  0  0  0
    2.2272    0.0359   -0.4473 H   0  0  0  0  0  0  0  0  0  0  0  0
   -0.1777   -1.4336    0.7338 H   0  0  0  0  0  0  0  0  0  0  0  0
    1.4070   -2.1538    0.4886 H   0  0  0  0  0  0  0  0  0  0  0  0
    1.1999   -1.4996    2.8040 H   0  0  0  0  0  0  0  0  0  0  0  0
    2.4438   -0.5408    2.0151 H   0  0  0  0  0  0  0  0  0  0  0  0
    1.1290    0.8443    3.5146 H   0  0  0  0  0  0  0  0  0  0  0  0
    0.9682    1.3891    1.8552 H   0  0  0  0  0  0  0  0  0  0  0  0
   -1.1749    1.5094    2.9741 H   0  0  0  0  0  0  0  0  0  0  0  0
   -1.2393    0.3542    1.6564 H   0  0  0  0  0  0  0  0  0  0  0  0
   -2.4533   -0.5350    3.5359 H   0  0  0  0  0  0  0  0  0  0  0  0
   -1.0425   -1.5283    3.2260 H   0  0  0  0  0  0  0  0  0  0  0  0
   -1.3306   -1.2566    5.6110 H   0  0  0  0  0  0  0  0  0  0  0  0
    0.1692   -0.5122    5.0953 H   0  0  0  0  0  0  0  0  0  0  0  0
   -0.9479    0.8740    6.7556 H   0  0  0  0  0  0  0  0  0  0  0  0
   -0.7770    1.7178    5.2297 H   0  0  0  0  0  0  0  0  0  0  0  0
   -2.9455    2.1860    6.1947 H   0  0  0  0  0  0  0  0  0  0  0  0
   -3.1107    1.3556    4.6592 H   0  0  0  0  0  0  0  0  0  0  0  0
   -4.7455    0.4176    6.1399 H   0  0  0  0  0  0  0  0  0  0  0  0
   -3.5196   -0.7898    5.8104 H   0  0  0  0  0  0  0  0  0  0  0  0
   -4.0178   -0.9680    8.1287 H   0  0  0  0  0  0  0  0  0  0  0  0
   -2.4163   -0.2480    8.0030 H   0  0  0  0  0  0  0  0  0  0  0  0
   -3.6558    0.9020    9.7387 H   0  0  0  0  0  0  0  0  0  0  0  0
   -3.4042    2.0172    8.3837 H   0  0  0  0  0  0  0  0  0  0  0  0
   -5.7199   -0.1567   10.0148 H   0  0  0  0  0  0  0  0  0  0  0  0
   -8.1732    0.0018    9.7954 H   0  0  0  0  0  0  0  0  0  0  0  0
   -7.5781    3.0456    6.8384 H   0  0  0  0  0  0  0  0  0  0  0  0
   -5.1483    2.7872    7.1692 H   0  0  0  0  0  0  0  0  0  0  0  0
  -10.1011    1.2091    8.9211 H   0  0  0  0  0  0  0  0  0  0  0  0
   -9.8524    2.6777    7.9556 H   0  0  0  0  0  0  0  0  0  0  0  0
  -11.0338    1.0564    6.6216 H   0  0  0  0  0  0  0  0  0  0  0  0
   -9.4220    1.2710    5.9395 H   0  0  0  0  0  0  0  0  0  0  0  0
  -10.2665   -1.0380    7.7612 H   0  0  0  0  0  0  0  0  0  0  0  0
  -10.1029   -1.1267    6.0128 H   0  0  0  0  0  0  0  0  0  0  0  0
   -8.6773   -0.8567    7.0094 H   0  0  0  0  0  0  0  0  0  0  0  0
  1  2  1  0  0  0  0
  2  3  1  0  0  0  0
  3  4  1  0  0  0  0
  4  5  1  0  0  0  0
  5  6  1  0  0  0  0
  6  7  1  0  0  0  0
  7  8  1  0  0  0  0
  8  9  1  0  0  0  0
  9 10  1  0  0  0  0
 10 11  1  0  0  0  0
 11 12  1  0  0  0  0
 12 13  1  0  0  0  0
 13 14  4  0  0  0  0
 14 15  4  0  0  0  0
 15 16  4  0  0  0  0
 16 17  4  0  0  0  0
 13 18  4  0  0  0  0
 17 18  4  0  0  0  0
 16 19  1  0  0  0  0
 19 20  1  0  0  0  0
 20 21  1  0  0  0  0
  1 22  1  0  0  0  0
  1 23  1  0  0  0  0
  1 24  1  0  0  0  0
  2 25  1  0  0  0  0
  2 26  1  0  0  0  0
  3 27  1  0  0  0  0
  3 28  1  0  0  0  0
  4 29  1  0  0  0  0
  4 30  1  0  0  0  0
  5 31  1  0  0  0  0
  5 32  1  0  0  0  0
  6 33  1  0  0  0  0
  6 34  1  0  0  0  0
  7 35  1  0  0  0  0
  7 36  1  0  0  0  0
  8 37  1  0  0  0  0
  8 38  1  0  0  0  0
  9 39  1  0  0  0  0
  9 40  1  0  0  0  0
 10 41  1  0  0  0  0
 10 42  1  0  0  0  0
 11 43  1  0  0  0  0
 11 44  1  0  0  0  0
 12 45  1  0  0  0  0
 12 46  1  0  0  0  0
 14 47  1  0  0  0  0
 15 48  1  0  0  0  0
 17 49  1  0  0  0  0
 18 50  1  0  0  0  0
 19 51  1  0  0  0  0
 19 52  1  0  0  0  0
 20 53  1  0  0  0  0
 20 54  1  0  0  0  0
 21 55  1  0  0  0  0
 21 56  1  0  0  0  0
 21 57  1  0  0  0  0
M  CHG  1   1   1
M  END
