32

C         -0.69808       -1.55284       -1.03318
O          0.48033       -0.78519       -1.27502
C          0.97021       -0.76558       -2.55380
C          0.28249       -1.30831       -3.64929
C          0.80402       -1.21707       -4.94266
C          2.01979       -0.58305       -5.16263
C          2.71528       -0.03736       -4.08688
C          2.20291       -0.12470       -2.77888
C          3.00399        0.55702       -1.72120
O          3.73205        1.50245       -2.04216
C          2.88473        0.17103       -0.25620
N          2.09185        1.17278        0.48226
C          1.13783        0.91029        1.44927
C          0.58425        2.11136        1.79275
N          1.22148        3.07610        1.03264
C          2.17239        2.49903        0.28085
C          0.93115        4.50329        1.02585
H         -0.56286       -2.59674       -1.33499
H         -1.56537       -1.10082       -1.52450
H         -0.88368       -1.54230        0.04527
H         -0.68117       -1.79838       -3.54224
H          0.25100       -1.63397       -5.78257
H          2.42090       -0.50295       -6.17094
H          3.66030        0.46974       -4.28073
H          2.49240       -0.83690       -0.10984
H          3.89348        0.17067        0.17453
H          0.96200       -0.10657        1.75460
H         -0.19366        2.40741        2.47512
H          2.85340        3.01926       -0.38458
H          1.57710        4.99926        1.75409
H          1.12037        4.90673        0.02701
H         -0.11845        4.66902        1.28336
