39

C          1.10289       -0.31620       -0.24466
N          0.61627       -0.84016        1.10139
C          0.86445        0.17131        2.23781
C          0.35120        1.59974        2.01908
C         -1.15287        1.85715        2.14336
C         -1.79474        1.44116        3.47325
C         -1.34543        2.26218        4.69101
C         -1.72596        3.71999        4.61143
C         -0.74010        4.71449        4.56180
C         -1.09672        6.06216        4.47819
C         -2.44056        6.42955        4.44644
C         -3.42932        5.45118        4.50629
C         -3.07516        4.10408        4.59311
C         -0.84347       -1.25696        0.98821
C          1.42696       -2.10354        1.43647
H          0.45922        0.50967       -0.55780
H          1.03722       -1.12799       -0.97577
H          2.13905        0.01557       -0.13310
H          0.46924       -0.27033        3.15849
H          1.95520        0.22612        2.34842
H          0.85345        2.23293        2.76229
H          0.69511        1.98550        1.05352
H         -1.32716        2.92764        1.97790
H         -1.68561        1.36583        1.32743
H         -2.88342        1.52108        3.36262
H         -1.59680        0.38224        3.66970
H         -1.80570        1.84192        5.59457
H         -0.26352        2.15643        4.83355
H          0.31481        4.45366        4.59358
H         -0.32702        6.82915        4.44427
H         -2.71734        7.47921        4.38465
H         -4.47811        5.73835        4.49211
H         -3.86414        3.35790        4.65170
H         -0.90184       -2.15055        0.35834
H         -1.22500       -1.47495        1.98901
H         -1.40912       -0.45906        0.50865
H          1.26944       -2.84090        0.64323
H          2.48519       -1.83191        1.49365
H          1.07387       -2.49271        2.39613
