59

C         -0.23919       -0.64249       -1.04793
C         -0.37601       -0.36144        0.44171
C          0.47362        0.82101        0.91435
C          0.03308        2.19093        0.38835
C         -1.27148        2.72912        0.97810
C         -1.22104        3.15283        2.44955
P         -0.62576        4.77208        2.86294
C         -1.41547        5.97669        1.78802
C         -2.92106        5.90490        1.53566
C         -3.84428        6.38264        2.65613
C         -3.58492        7.81242        3.10544
C         -1.01492        5.23508        4.54130
C         -1.25406        4.14347        5.58443
C         -0.07731        3.81339        6.50318
C          0.37119        4.98166        7.37024
C          1.11736        5.01720        2.57287
C          2.13431        4.53836        3.60106
C          2.36744        3.03060        3.63673
C          3.27792        2.54485        2.51973
H         -0.64699        0.17190       -1.65249
H         -0.78338       -1.55529       -1.31018
H          0.81096       -0.78633       -1.32468
H         -1.43139       -0.20768        0.69208
H         -0.05322       -1.25534        0.98807
H          0.48713        0.82720        2.00874
H          1.51134        0.64915        0.59962
H          0.83122        2.91018        0.56801
H         -0.07323        2.14408       -0.70180
H         -1.58410        3.58014        0.36584
H         -2.05339        1.97087        0.86056
H         -2.25922        3.12952        2.80624
H         -0.70177        2.39718        3.04242
H         -1.13510        6.97982        2.12566
H         -0.92868        5.85767        0.81138
H         -3.13769        6.51246        0.64714
H         -3.20727        4.88064        1.27877
H         -4.87724        6.32376        2.29022
H         -3.79486        5.70087        3.50993
H         -3.61675        8.50271        2.25657
H         -4.34967        8.12464        3.82393
H         -2.61277        7.91433        3.59570
H         -0.27776        5.96562        4.88534
H         -1.94366        5.80449        4.49820
H         -2.08631        4.46295        6.22586
H         -1.58925        3.22185        5.10086
H         -0.38525        2.99754        7.16894
H          0.76622        3.43022        5.92632
H         -0.47100        5.40356        7.92810
H          1.12104        4.64637        8.09400
H          0.82484        5.77958        6.77612
H          1.38809        4.66003        1.57754
H          1.24352        6.10697        2.51907
H          3.09208        5.03772        3.40670
H          1.82100        4.87760        4.59098
H          2.84546        2.77509        4.59045
H          1.41916        2.49051        3.61083
H          4.27416        2.98955        2.61000
H          3.39028        1.45719        2.57239
H          2.88487        2.79798        1.53301
