 xtb: 6.7.1 (edcfbbe)
          12202402043D

 14 15  0     0  0            999 V2000
    1.5965   -1.3428    0.0470 N   0  0  0  0  0  0  0  0  0  0  0  0
    2.5070   -0.7090    0.0555 N   0  0  0  0  0  0  0  0  0  0  0  0
    3.5801   -0.1810   -0.0789 N   0  0  0  0  0  0  0  0  0  0  0  0
    4.0999    0.9258    0.4098 C   0  0  0  0  0  0  0  0  0  0  0  0
    3.5522    1.7891    1.2156 N   0  0  0  0  0  0  0  0  0  0  0  0
    4.5051    2.7979    1.4364 N   0  0  0  0  0  0  0  0  0  0  0  0
    5.6879    2.3352    0.6278 C   0  0  0  0  0  0  0  0  0  0  0  0
    5.4231    1.2655    0.0462 N   0  0  0  0  0  0  0  0  0  0  0  0
    4.0072    4.1411    1.0604 C   0  0  0  0  0  0  0  0  0  0  0  0
    4.7364    2.8189    2.4427 H   0  0  0  0  0  0  0  0  0  0  0  0
    6.5945    2.9070    0.5853 H   0  0  0  0  0  0  0  0  0  0  0  0
    3.0871    4.3419    1.6076 H   0  0  0  0  0  0  0  0  0  0  0  0
    4.7539    4.8953    1.2990 H   0  0  0  0  0  0  0  0  0  0  0  0
    3.7928    4.1563   -0.0077 H   0  0  0  0  0  0  0  0  0  0  0  0
  1  2  3  0  0  0  0
  1  3  1  0  0  0  0
  2  3  4  0  0  0  0
  3  4  4  0  0  0  0
  4  5  2  0  0  0  0
  5  6  1  0  0  0  0
  6  7  1  0  0  0  0
  4  8  1  0  0  0  0
  7  8  2  0  0  0  0
  6  9  1  0  0  0  0
  6 10  1  0  0  0  0
  7 11  1  0  0  0  0
  9 12  1  0  0  0  0
  9 13  1  0  0  0  0
  9 14  1  0  0  0  0
M  CHG  1   1   1
M  END
