38

C          1.08015       -0.13961        0.09592
O          0.63228       -0.42278        1.42285
C          1.09980       -1.59197        1.92174
O          1.84092       -2.37717        1.35051
C          0.60239       -1.84557        3.29079
C         -0.23945       -1.03653        3.95232
C         -0.74735       -1.34951        5.29087
C         -2.12724       -1.33052        5.51011
C         -2.65019       -1.63715        6.76917
C         -1.80084       -1.94889        7.84175
C         -0.41509       -1.93806        7.62572
C          0.10569       -1.64560        6.35932
C         -2.37118       -2.29754        9.19074
N         -2.61253       -1.07406        9.96155
C         -3.64835       -0.16630        9.77423
C         -3.53384        0.78189       10.75389
N         -2.44757        0.41300       11.50873
C         -1.86817       -0.68384       11.01246
C         -1.96318        1.02651       12.64615
O         -0.97283        0.49403       13.12334
C         -2.63838        2.23476       13.22213
H          0.68467        0.83818       -0.19292
H          0.69674       -0.88920       -0.60336
H          2.17316       -0.09532        0.05782
H          0.96181       -2.77567        3.71863
H         -0.62077       -0.12460        3.49892
H         -2.80810       -1.10152        4.69151
H         -3.73125       -1.64766        6.88983
H          0.27992       -2.17673        8.42850
H          1.18495       -1.65269        6.21387
H         -3.31682       -2.84214        9.08861
H         -1.68541       -2.94492        9.74941
H         -4.34248       -0.31607        8.96508
H         -4.11151        1.65845       10.99391
H         -0.98566       -1.19042       11.39286
H         -2.59284        3.06081       12.50858
H         -3.67783        1.99892       13.46432
H         -2.12723        2.53433       14.14132
