 xtb: 6.7.1 (edcfbbe)
          12202402043D

 15 15  0     0  0            999 V2000
    0.9608   -0.0926    0.0705 C   0  0  0  0  0  0  0  0  0  0  0  0
    0.6100   -1.3450    0.6836 N   0  0  0  0  0  0  0  0  0  0  0  0
   -0.2322   -1.5436    1.7322 C   0  0  0  0  0  0  0  0  0  0  0  0
   -0.3198   -2.8072    2.0136 N   0  0  0  0  0  0  0  0  0  0  0  0
    0.4634   -3.4377    1.1504 N   0  0  0  0  0  0  0  0  0  0  0  0
    1.0368   -2.5650    0.3336 C   0  0  0  0  0  0  0  0  0  0  0  0
    0.5945   -4.8655    1.1855 C   0  0  0  0  0  0  0  0  0  0  0  0
    0.5670    0.7257    0.6694 H   0  0  0  0  0  0  0  0  0  0  0  0
    0.5389   -0.0317   -0.9339 H   0  0  0  0  0  0  0  0  0  0  0  0
    2.0443    0.0033    0.0003 H   0  0  0  0  0  0  0  0  0  0  0  0
   -0.7536   -0.7699    2.2589 H   0  0  0  0  0  0  0  0  0  0  0  0
    1.7196   -2.7917   -0.4623 H   0  0  0  0  0  0  0  0  0  0  0  0
    0.2020   -5.3094    0.2700 H   0  0  0  0  0  0  0  0  0  0  0  0
    1.6395   -5.1528    1.2995 H   0  0  0  0  0  0  0  0  0  0  0  0
    0.0208   -5.2291    2.0362 H   0  0  0  0  0  0  0  0  0  0  0  0
  1  2  1  0  0  0  0
  2  3  4  0  0  0  0
  3  4  2  0  0  0  0
  4  5  4  0  0  0  0
  2  6  4  0  0  0  0
  5  6  4  0  0  0  0
  5  7  1  0  0  0  0
  1  8  1  0  0  0  0
  1  9  1  0  0  0  0
  1 10  1  0  0  0  0
  3 11  1  0  0  0  0
  6 12  1  0  0  0  0
  7 13  1  0  0  0  0
  7 14  1  0  0  0  0
  7 15  1  0  0  0  0
M  CHG  1   1   1
M  END
