62

C          0.54709        0.58838        1.00581
C          0.71463        1.76345        0.05506
C          1.11626        1.34736       -1.36173
C          0.11264        0.45209       -2.09593
C         -1.28856        1.04420       -2.28360
C         -1.34869        2.38031       -3.03264
C         -0.70099        2.38840       -4.42102
C         -1.27522        1.37853       -5.41922
C         -2.75196        1.57393       -5.78068
C         -3.11486        2.93630       -6.38282
C         -2.35549        3.30778       -7.65436
N         -2.72219        2.46384       -8.79661
C         -2.08698        1.29824       -9.20030
C         -2.74288        0.85099      -10.31290
N         -3.73851        1.77354      -10.58504
C         -3.72379        2.73590       -9.65114
C         -4.66242        1.76001      -11.70766
C         -5.56140        0.69238      -11.82780
C         -5.65198       -0.42792      -10.83422
C         -6.41824        0.68640      -12.93763
C         -6.40094        1.73110      -13.87233
C         -5.48760        2.78219      -13.71578
C         -4.59496        2.80978      -12.63513
C         -3.60424        3.93284      -12.54065
C         -7.31175        1.68618      -15.06724
H         -0.29958       -0.04206        0.71903
H          0.36131        0.95074        2.02197
H          1.44928       -0.03118        1.02744
H         -0.20774        2.35366        0.03500
H          1.49521        2.42296        0.45352
H          1.30146        2.25195       -1.95247
H          2.07678        0.81854       -1.31465
H          0.53223        0.19522       -3.07590
H          0.01772       -0.50117       -1.56238
H         -1.90703        0.30745       -2.81025
H         -1.76190        1.17456       -1.30308
H         -2.39906        2.68296       -3.11925
H         -0.86887        3.15592       -2.42362
H         -0.77875        3.39998       -4.83632
H          0.37412        2.19909       -4.31945
H         -0.66837        1.41683       -6.33045
H         -1.14542        0.36214       -5.02971
H         -3.04421        0.78283       -6.48144
H         -3.36670        1.41597       -4.88642
H         -4.19085        2.93890       -6.59742
H         -2.95026        3.71804       -5.63252
H         -2.59573        4.34262       -7.92763
H         -1.27095        3.26513       -7.51443
H         -1.24329        0.93388       -8.64086
H         -2.60669        0.01128      -10.97183
H         -4.40242        3.57941       -9.58865
H         -6.61559       -0.94424      -10.90689
H         -4.86020       -1.16085      -11.01436
H         -5.57657       -0.04992       -9.80958
H         -7.12132       -0.13556      -13.07681
H         -5.46235        3.57719      -14.46175
H         -3.48853        4.44335      -13.50302
H         -3.93625        4.67031      -11.80406
H         -2.61367        3.55864      -12.26288
H         -6.87612        1.05083      -15.84457
H         -8.29380        1.28946      -14.78946
H         -7.47024        2.68769      -15.48070
