 xtb: 6.7.1 (edcfbbe)
          12202402043D

 75 75  0     0  0            999 V2000
    1.7268    1.6349    0.1698 C   0  0  0  0  0  0  0  0  0  0  0  0
    1.5082    2.3024   -1.1828 C   0  0  0  0  0  0  0  0  0  0  0  0
    1.7854    1.3747   -2.3669 C   0  0  0  0  0  0  0  0  0  0  0  0
    0.9050    0.1248   -2.4280 C   0  0  0  0  0  0  0  0  0  0  0  0
   -0.5991    0.3965   -2.4893 C   0  0  0  0  0  0  0  0  0  0  0  0
   -1.0572    1.2284   -3.6888 C   0  0  0  0  0  0  0  0  0  0  0  0
   -0.7370    0.6221   -5.0568 C   0  0  0  0  0  0  0  0  0  0  0  0
   -1.2974   -0.7832   -5.2878 C   0  0  0  0  0  0  0  0  0  0  0  0
   -2.8118   -0.9109   -5.1069 C   0  0  0  0  0  0  0  0  0  0  0  0
   -3.6451   -0.0368   -6.0458 C   0  0  0  0  0  0  0  0  0  0  0  0
   -3.4467   -0.3025   -7.5417 C   0  0  0  0  0  0  0  0  0  0  0  0
   -3.6039   -1.7365   -8.0581 C   0  0  0  0  0  0  0  0  0  0  0  0
   -4.9750   -2.3389   -8.1259 N   0  0  0  0  0  0  0  0  0  0  0  0
   -5.9939   -1.4049   -8.6935 C   0  0  0  0  0  0  0  0  0  0  0  0
   -5.7161   -0.8317  -10.0892 C   0  0  0  0  0  0  0  0  0  0  0  0
   -5.8999   -1.7979  -11.2356 C   0  0  0  0  0  0  0  0  0  0  0  0
   -4.7793   -2.1721  -11.9716 C   0  0  0  0  0  0  0  0  0  0  0  0
   -4.8509   -3.0704  -13.0262 C   0  0  0  0  0  0  0  0  0  0  0  0
   -6.0983   -3.5899  -13.3474 C   0  0  0  0  0  0  0  0  0  0  0  0
   -7.2233   -3.2010  -12.6484 C   0  0  0  0  0  0  0  0  0  0  0  0
   -7.1527   -2.3033  -11.5884 C   0  0  0  0  0  0  0  0  0  0  0  0
   -8.4244   -1.9191  -10.8895 C   0  0  0  0  0  0  0  0  0  0  0  0
   -3.6240   -3.4607  -13.8094 C   0  0  0  0  0  0  0  0  0  0  0  0
   -3.1024   -2.2644  -14.6088 C   0  0  0  0  0  0  0  0  0  0  0  0
   -2.5319   -4.0248  -12.8974 C   0  0  0  0  0  0  0  0  0  0  0  0
   -4.8854   -3.5667   -8.9422 C   0  0  0  0  0  0  0  0  0  0  0  0
   -5.4363   -2.7448   -6.7837 C   0  0  0  0  0  0  0  0  0  0  0  0
    1.0023    0.8424    0.3404 H   0  0  0  0  0  0  0  0  0  0  0  0
    1.6220    2.3641    0.9696 H   0  0  0  0  0  0  0  0  0  0  0  0
    2.7254    1.2074    0.2260 H   0  0  0  0  0  0  0  0  0  0  0  0
    0.4874    2.6849   -1.2393 H   0  0  0  0  0  0  0  0  0  0  0  0
    2.1794    3.1605   -1.2639 H   0  0  0  0  0  0  0  0  0  0  0  0
    1.6725    1.9450   -3.2916 H   0  0  0  0  0  0  0  0  0  0  0  0
    2.8271    1.0483   -2.3152 H   0  0  0  0  0  0  0  0  0  0  0  0
    1.2050   -0.4624   -3.2992 H   0  0  0  0  0  0  0  0  0  0  0  0
    1.1015   -0.4909   -1.5485 H   0  0  0  0  0  0  0  0  0  0  0  0
   -1.1207   -0.5639   -2.4898 H   0  0  0  0  0  0  0  0  0  0  0  0
   -0.9033    0.9197   -1.5814 H   0  0  0  0  0  0  0  0  0  0  0  0
   -2.1348    1.3900   -3.6037 H   0  0  0  0  0  0  0  0  0  0  0  0
   -0.5869    2.2115   -3.6399 H   0  0  0  0  0  0  0  0  0  0  0  0
   -1.1107    1.2992   -5.8291 H   0  0  0  0  0  0  0  0  0  0  0  0
    0.3459    0.5726   -5.1787 H   0  0  0  0  0  0  0  0  0  0  0  0
   -1.0138   -1.1065   -6.2930 H   0  0  0  0  0  0  0  0  0  0  0  0
   -0.8203   -1.4712   -4.5886 H   0  0  0  0  0  0  0  0  0  0  0  0
   -3.0858   -1.9629   -5.2206 H   0  0  0  0  0  0  0  0  0  0  0  0
   -3.0659   -0.6327   -4.0840 H   0  0  0  0  0  0  0  0  0  0  0  0
   -4.6998   -0.1178   -5.7710 H   0  0  0  0  0  0  0  0  0  0  0  0
   -3.3719    1.0051   -5.8754 H   0  0  0  0  0  0  0  0  0  0  0  0
   -4.0835    0.3815   -8.1027 H   0  0  0  0  0  0  0  0  0  0  0  0
   -2.4168   -0.0329   -7.7852 H   0  0  0  0  0  0  0  0  0  0  0  0
   -3.2058   -1.7625   -9.0739 H   0  0  0  0  0  0  0  0  0  0  0  0
   -2.9919   -2.4020   -7.4474 H   0  0  0  0  0  0  0  0  0  0  0  0
   -6.9403   -1.9459   -8.7216 H   0  0  0  0  0  0  0  0  0  0  0  0
   -6.0971   -0.5797   -7.9868 H   0  0  0  0  0  0  0  0  0  0  0  0
   -4.7150   -0.4043  -10.1395 H   0  0  0  0  0  0  0  0  0  0  0  0
   -6.4162   -0.0017  -10.2152 H   0  0  0  0  0  0  0  0  0  0  0  0
   -3.8224   -1.7328  -11.7218 H   0  0  0  0  0  0  0  0  0  0  0  0
   -6.1928   -4.2905  -14.1629 H   0  0  0  0  0  0  0  0  0  0  0  0
   -8.1865   -3.5973  -12.9328 H   0  0  0  0  0  0  0  0  0  0  0  0
   -9.2541   -1.9704  -11.5898 H   0  0  0  0  0  0  0  0  0  0  0  0
   -8.6513   -2.6110  -10.0763 H   0  0  0  0  0  0  0  0  0  0  0  0
   -8.3858   -0.9103  -10.4865 H   0  0  0  0  0  0  0  0  0  0  0  0
   -3.9114   -4.2446  -14.5169 H   0  0  0  0  0  0  0  0  0  0  0  0
   -2.7838   -1.4625  -13.9467 H   0  0  0  0  0  0  0  0  0  0  0  0
   -2.2539   -2.5638  -15.2184 H   0  0  0  0  0  0  0  0  0  0  0  0
   -3.8798   -1.8795  -15.2643 H   0  0  0  0  0  0  0  0  0  0  0  0
   -2.9182   -4.8507  -12.3028 H   0  0  0  0  0  0  0  0  0  0  0  0
   -1.7046   -4.3934  -13.4976 H   0  0  0  0  0  0  0  0  0  0  0  0
   -2.1439   -3.2606  -12.2273 H   0  0  0  0  0  0  0  0  0  0  0  0
   -4.1615   -4.2512   -8.5033 H   0  0  0  0  0  0  0  0  0  0  0  0
   -5.8550   -4.0594   -8.9808 H   0  0  0  0  0  0  0  0  0  0  0  0
   -4.5848   -3.3327   -9.9619 H   0  0  0  0  0  0  0  0  0  0  0  0
   -4.7347   -3.4519   -6.3457 H   0  0  0  0  0  0  0  0  0  0  0  0
   -5.5222   -1.8847   -6.1267 H   0  0  0  0  0  0  0  0  0  0  0  0
   -6.4099   -3.2272   -6.8552 H   0  0  0  0  0  0  0  0  0  0  0  0
  1  2  1  0  0  0  0
  2  3  1  0  0  0  0
  3  4  1  0  0  0  0
  4  5  1  0  0  0  0
  5  6  1  0  0  0  0
  6  7  1  0  0  0  0
  7  8  1  0  0  0  0
  8  9  1  0  0  0  0
  9 10  1  0  0  0  0
 10 11  1  0  0  0  0
 11 12  1  0  0  0  0
 12 13  1  0  0  0  0
 13 14  1  0  0  0  0
 14 15  1  0  0  0  0
 15 16  1  0  0  0  0
 16 17  4  0  0  0  0
 17 18  4  0  0  0  0
 18 19  4  0  0  0  0
 19 20  4  0  0  0  0
 16 21  4  0  0  0  0
 20 21  4  0  0  0  0
 21 22  1  0  0  0  0
 18 23  1  0  0  0  0
 23 24  1  0  0  0  0
 23 25  1  0  0  0  0
 13 26  1  0  0  0  0
 13 27  1  0  0  0  0
  1 28  1  0  0  0  0
  1 29  1  0  0  0  0
  1 30  1  0  0  0  0
  2 31  1  0  0  0  0
  2 32  1  0  0  0  0
  3 33  1  0  0  0  0
  3 34  1  0  0  0  0
  4 35  1  0  0  0  0
  4 36  1  0  0  0  0
  5 37  1  0  0  0  0
  5 38  1  0  0  0  0
  6 39  1  0  0  0  0
  6 40  1  0  0  0  0
  7 41  1  0  0  0  0
  7 42  1  0  0  0  0
  8 43  1  0  0  0  0
  8 44  1  0  0  0  0
  9 45  1  0  0  0  0
  9 46  1  0  0  0  0
 10 47  1  0  0  0  0
 10 48  1  0  0  0  0
 11 49  1  0  0  0  0
 11 50  1  0  0  0  0
 12 51  1  0  0  0  0
 12 52  1  0  0  0  0
 14 53  1  0  0  0  0
 14 54  1  0  0  0  0
 15 55  1  0  0  0  0
 15 56  1  0  0  0  0
 17 57  1  0  0  0  0
 19 58  1  0  0  0  0
 20 59  1  0  0  0  0
 22 60  1  0  0  0  0
 22 61  1  0  0  0  0
 22 62  1  0  0  0  0
 23 63  1  0  0  0  0
 24 64  1  0  0  0  0
 24 65  1  0  0  0  0
 24 66  1  0  0  0  0
 25 67  1  0  0  0  0
 25 68  1  0  0  0  0
 25 69  1  0  0  0  0
 26 70  1  0  0  0  0
 26 71  1  0  0  0  0
 26 72  1  0  0  0  0
 27 73  1  0  0  0  0
 27 74  1  0  0  0  0
 27 75  1  0  0  0  0
M  CHG  1   1   1
M  END
