 xtb: 6.7.1 (edcfbbe)
          12202402043D

 72 76  0     0  0            999 V2000
    4.4016    2.0453    1.2934 O   0  0  0  0  0  0  0  0  0  0  0  0
    4.4690    0.8340    1.2729 C   0  0  0  0  0  0  0  0  0  0  0  0
    4.8637    0.1497   -0.0859 C   0  0  0  0  0  0  0  0  0  0  0  0
    5.4494    1.2324   -0.8666 N   0  0  0  0  0  0  0  0  0  0  0  0
    6.7642    1.4664   -1.1498 C   0  0  0  0  0  0  0  0  0  0  0  0
    6.8540    2.7205   -1.6664 C   0  0  0  0  0  0  0  0  0  0  0  0
    5.5967    3.2490   -1.6767 N   0  0  0  0  0  0  0  0  0  0  0  0
    4.7685    2.3346   -1.1778 C   0  0  0  0  0  0  0  0  0  0  0  0
    5.1617    4.5615   -2.1526 C   0  0  0  0  0  0  0  0  0  0  0  0
    4.1675    4.2559   -3.3284 C   0  0  0  0  0  0  0  0  0  0  0  0
    3.0716    3.8328   -3.0531 O   0  0  0  0  0  0  0  0  0  0  0  0
    4.6252    4.4931   -4.7031 C   0  0  0  0  0  0  0  0  0  0  0  0
    3.8278    5.2647   -5.5494 C   0  0  0  0  0  0  0  0  0  0  0  0
    4.2258    5.5136   -6.8454 C   0  0  0  0  0  0  0  0  0  0  0  0
    5.4056    4.9644   -7.3498 C   0  0  0  0  0  0  0  0  0  0  0  0
    6.1668    4.1436   -6.5158 C   0  0  0  0  0  0  0  0  0  0  0  0
    5.7925    3.9182   -5.2083 C   0  0  0  0  0  0  0  0  0  0  0  0
    5.8319    5.2354   -8.7270 C   0  0  0  0  0  0  0  0  0  0  0  0
    5.6946    6.5128   -9.2686 C   0  0  0  0  0  0  0  0  0  0  0  0
    6.1046    6.7734  -10.5624 C   0  0  0  0  0  0  0  0  0  0  0  0
    6.6466    5.7618  -11.3383 C   0  0  0  0  0  0  0  0  0  0  0  0
    6.7818    4.4877  -10.8117 C   0  0  0  0  0  0  0  0  0  0  0  0
    6.3833    4.2259   -9.5144 C   0  0  0  0  0  0  0  0  0  0  0  0
    4.3692    5.2432   -1.0308 C   0  0  0  0  0  0  0  0  0  0  0  0
    6.3437    5.4373   -2.5430 C   0  0  0  0  0  0  0  0  0  0  0  0
    5.8907   -0.9609    0.1046 C   0  0  0  0  0  0  0  0  0  0  0  0
    3.6087   -0.3450   -0.8172 C   0  0  0  0  0  0  0  0  0  0  0  0
    4.2635    0.0176    2.4647 C   0  0  0  0  0  0  0  0  0  0  0  0
    4.5644    0.6319    3.6894 C   0  0  0  0  0  0  0  0  0  0  0  0
    4.4301   -0.0497    4.8760 C   0  0  0  0  0  0  0  0  0  0  0  0
    3.9640   -1.3668    4.8939 C   0  0  0  0  0  0  0  0  0  0  0  0
    3.6218   -1.9626    3.6768 C   0  0  0  0  0  0  0  0  0  0  0  0
    3.7704   -1.2909    2.4838 C   0  0  0  0  0  0  0  0  0  0  0  0
    3.8306   -2.1019    6.1536 C   0  0  0  0  0  0  0  0  0  0  0  0
    3.3765   -1.4613    7.3064 C   0  0  0  0  0  0  0  0  0  0  0  0
    3.2528   -2.1590    8.4928 C   0  0  0  0  0  0  0  0  0  0  0  0
    3.5927   -3.5008    8.5510 C   0  0  0  0  0  0  0  0  0  0  0  0
    4.0501   -4.1455    7.4130 C   0  0  0  0  0  0  0  0  0  0  0  0
    4.1622   -3.4553    6.2213 C   0  0  0  0  0  0  0  0  0  0  0  0
    7.5403    0.7503   -0.9845 H   0  0  0  0  0  0  0  0  0  0  0  0
    7.7190    3.2515   -2.0024 H   0  0  0  0  0  0  0  0  0  0  0  0
    3.7074    2.4586   -1.1062 H   0  0  0  0  0  0  0  0  0  0  0  0
    2.9076    5.6802   -5.1678 H   0  0  0  0  0  0  0  0  0  0  0  0
    3.6040    6.1185   -7.4872 H   0  0  0  0  0  0  0  0  0  0  0  0
    7.0722    3.6945   -6.8951 H   0  0  0  0  0  0  0  0  0  0  0  0
    6.3803    3.2495   -4.5944 H   0  0  0  0  0  0  0  0  0  0  0  0
    5.2905    7.3099   -8.6618 H   0  0  0  0  0  0  0  0  0  0  0  0
    6.0012    7.7688  -10.9672 H   0  0  0  0  0  0  0  0  0  0  0  0
    6.9620    5.9655  -12.3500 H   0  0  0  0  0  0  0  0  0  0  0  0
    7.1983    3.6950  -11.4147 H   0  0  0  0  0  0  0  0  0  0  0  0
    6.4713    3.2250   -9.1175 H   0  0  0  0  0  0  0  0  0  0  0  0
    4.9361    5.2248   -0.1032 H   0  0  0  0  0  0  0  0  0  0  0  0
    4.1725    6.2774   -1.2997 H   0  0  0  0  0  0  0  0  0  0  0  0
    3.4146    4.7503   -0.8694 H   0  0  0  0  0  0  0  0  0  0  0  0
    6.9467    5.6580   -1.6643 H   0  0  0  0  0  0  0  0  0  0  0  0
    6.9721    4.9912   -3.3068 H   0  0  0  0  0  0  0  0  0  0  0  0
    5.9680    6.3777   -2.9382 H   0  0  0  0  0  0  0  0  0  0  0  0
    5.4479   -1.7990    0.6313 H   0  0  0  0  0  0  0  0  0  0  0  0
    6.2411   -1.3173   -0.8621 H   0  0  0  0  0  0  0  0  0  0  0  0
    6.7370   -0.6149    0.6940 H   0  0  0  0  0  0  0  0  0  0  0  0
    3.2992   -1.3137   -0.4401 H   0  0  0  0  0  0  0  0  0  0  0  0
    2.7769    0.3444   -0.6968 H   0  0  0  0  0  0  0  0  0  0  0  0
    3.8205   -0.4540   -1.8794 H   0  0  0  0  0  0  0  0  0  0  0  0
    4.9285    1.6482    3.6793 H   0  0  0  0  0  0  0  0  0  0  0  0
    4.7031    0.4322    5.8021 H   0  0  0  0  0  0  0  0  0  0  0  0
    3.2105   -2.9606    3.6745 H   0  0  0  0  0  0  0  0  0  0  0  0
    3.4459   -1.7741    1.5766 H   0  0  0  0  0  0  0  0  0  0  0  0
    3.0900   -0.4210    7.2629 H   0  0  0  0  0  0  0  0  0  0  0  0
    2.8905   -1.6543    9.3757 H   0  0  0  0  0  0  0  0  0  0  0  0
    3.5021   -4.0426    9.4796 H   0  0  0  0  0  0  0  0  0  0  0  0
    4.3206   -5.1897    7.4550 H   0  0  0  0  0  0  0  0  0  0  0  0
    4.5391   -3.9587    5.3430 H   0  0  0  0  0  0  0  0  0  0  0  0
  1  2  2  0  0  0  0
  2  3  1  0  0  0  0
  3  4  1  0  0  0  0
  4  5  4  0  0  0  0
  5  6  2  0  0  0  0
  6  7  4  0  0  0  0
  4  8  4  0  0  0  0
  7  8  4  0  0  0  0
  7  9  1  0  0  0  0
  9 10  1  0  0  0  0
 10 11  2  0  0  0  0
 10 12  1  0  0  0  0
 12 13  4  0  0  0  0
 13 14  4  0  0  0  0
 14 15  4  0  0  0  0
 15 16  4  0  0  0  0
 12 17  4  0  0  0  0
 16 17  4  0  0  0  0
 15 18  1  0  0  0  0
 18 19  4  0  0  0  0
 19 20  4  0  0  0  0
 20 21  4  0  0  0  0
 21 22  4  0  0  0  0
 18 23  4  0  0  0  0
 22 23  4  0  0  0  0
  9 24  1  0  0  0  0
  9 25  1  0  0  0  0
  3 26  1  0  0  0  0
  3 27  1  0  0  0  0
  2 28  1  0  0  0  0
 28 29  4  0  0  0  0
 29 30  4  0  0  0  0
 30 31  4  0  0  0  0
 31 32  4  0  0  0  0
 28 33  4  0  0  0  0
 32 33  4  0  0  0  0
 31 34  1  0  0  0  0
 34 35  4  0  0  0  0
 35 36  4  0  0  0  0
 36 37  4  0  0  0  0
 37 38  4  0  0  0  0
 34 39  4  0  0  0  0
 38 39  4  0  0  0  0
  5 40  1  0  0  0  0
  6 41  1  0  0  0  0
  8 42  1  0  0  0  0
 13 43  1  0  0  0  0
 14 44  1  0  0  0  0
 16 45  1  0  0  0  0
 17 46  1  0  0  0  0
 19 47  1  0  0  0  0
 20 48  1  0  0  0  0
 21 49  1  0  0  0  0
 22 50  1  0  0  0  0
 23 51  1  0  0  0  0
 24 52  1  0  0  0  0
 24 53  1  0  0  0  0
 24 54  1  0  0  0  0
 25 55  1  0  0  0  0
 25 56  1  0  0  0  0
 25 57  1  0  0  0  0
 26 58  1  0  0  0  0
 26 59  1  0  0  0  0
 26 60  1  0  0  0  0
 27 61  1  0  0  0  0
 27 62  1  0  0  0  0
 27 63  1  0  0  0  0
 29 64  1  0  0  0  0
 30 65  1  0  0  0  0
 32 66  1  0  0  0  0
 33 67  1  0  0  0  0
 35 68  1  0  0  0  0
 36 69  1  0  0  0  0
 37 70  1  0  0  0  0
 38 71  1  0  0  0  0
 39 72  1  0  0  0  0
M  CHG  1   1   1
M  END
