 xtb: 6.7.1 (edcfbbe)
          12202402043D

 28 29  0     0  0            999 V2000
   -2.3084    0.2289    0.2076 C   0  0  0  0  0  0  0  0  0  0  0  0
   -0.8716    0.0849    0.1340 N   0  0  0  0  0  0  0  0  0  0  0  0
   -0.3401   -1.0545   -0.3338 C   0  0  0  0  0  0  0  0  0  0  0  0
    1.0188   -1.2307   -0.4141 C   0  0  0  0  0  0  0  0  0  0  0  0
    1.8898   -0.2124   -0.0063 C   0  0  0  0  0  0  0  0  0  0  0  0
    1.2996    0.9552    0.4933 C   0  0  0  0  0  0  0  0  0  0  0  0
   -0.0669    1.0731    0.5505 C   0  0  0  0  0  0  0  0  0  0  0  0
    3.3622   -0.3869   -0.0321 C   0  0  0  0  0  0  0  0  0  0  0  0
    3.7682   -0.8880    1.3487 C   0  0  0  0  0  0  0  0  0  0  0  0
    4.1424    0.0108    2.3372 C   0  0  0  0  0  0  0  0  0  0  0  0
    4.5299   -0.4488    3.5841 C   0  0  0  0  0  0  0  0  0  0  0  0
    4.5331   -1.8068    3.8540 C   0  0  0  0  0  0  0  0  0  0  0  0
    4.1496   -2.7054    2.8727 C   0  0  0  0  0  0  0  0  0  0  0  0
    3.7609   -2.2478    1.6255 C   0  0  0  0  0  0  0  0  0  0  0  0
   -2.7797   -0.2387   -0.6555 H   0  0  0  0  0  0  0  0  0  0  0  0
   -2.6883   -0.2517    1.1116 H   0  0  0  0  0  0  0  0  0  0  0  0
   -2.5833    1.2812    0.2326 H   0  0  0  0  0  0  0  0  0  0  0  0
   -1.0289   -1.8226   -0.6528 H   0  0  0  0  0  0  0  0  0  0  0  0
    1.4081   -2.1567   -0.8060 H   0  0  0  0  0  0  0  0  0  0  0  0
    1.9143    1.7746    0.8297 H   0  0  0  0  0  0  0  0  0  0  0  0
   -0.5390    1.9693    0.9245 H   0  0  0  0  0  0  0  0  0  0  0  0
    3.6542   -1.1176   -0.7854 H   0  0  0  0  0  0  0  0  0  0  0  0
    3.8610    0.5610   -0.2316 H   0  0  0  0  0  0  0  0  0  0  0  0
    4.1589    1.0708    2.1300 H   0  0  0  0  0  0  0  0  0  0  0  0
    4.8357    0.2556    4.3420 H   0  0  0  0  0  0  0  0  0  0  0  0
    4.8383   -2.1643    4.8249 H   0  0  0  0  0  0  0  0  0  0  0  0
    4.1575   -3.7653    3.0748 H   0  0  0  0  0  0  0  0  0  0  0  0
    3.4750   -2.9556    0.8612 H   0  0  0  0  0  0  0  0  0  0  0  0
  1  2  1  0  0  0  0
  2  3  4  0  0  0  0
  3  4  2  0  0  0  0
  4  5  4  0  0  0  0
  5  6  4  0  0  0  0
  2  7  4  0  0  0  0
  6  7  4  0  0  0  0
  5  8  1  0  0  0  0
  8  9  1  0  0  0  0
  9 10  4  0  0  0  0
 10 11  4  0  0  0  0
 11 12  4  0  0  0  0
 12 13  4  0  0  0  0
  9 14  4  0  0  0  0
 13 14  4  0  0  0  0
  1 15  1  0  0  0  0
  1 16  1  0  0  0  0
  1 17  1  0  0  0  0
  3 18  1  0  0  0  0
  4 19  1  0  0  0  0
  6 20  1  0  0  0  0
  7 21  1  0  0  0  0
  8 22  1  0  0  0  0
  8 23  1  0  0  0  0
 10 24  1  0  0  0  0
 11 25  1  0  0  0  0
 12 26  1  0  0  0  0
 13 27  1  0  0  0  0
 14 28  1  0  0  0  0
M  CHG  1   1   1
M  END
