28

C         -2.43127        0.25303        0.06044
N         -0.96616        0.10991        0.05468
C         -0.41769       -1.06560       -0.32587
C          0.96227       -1.23283       -0.33503
C          1.79262       -0.18189        0.05826
C          1.19951        1.01549        0.46253
C         -0.18617        1.13930        0.45237
C          3.29673       -0.35356        0.09148
C          3.80196       -0.88799        1.40958
C          4.29141       -0.01595        2.39285
C          4.75388       -0.51262        3.61302
C          4.72637       -1.88244        3.86593
C          4.23951       -2.75853        2.89879
C          3.78046       -2.26536        1.67650
H         -2.83809       -0.26768       -0.81064
H         -2.80076       -0.18970        0.98866
H         -2.69542        1.31197        0.00428
H         -1.09188       -1.86603       -0.61700
H          1.38522       -2.18823       -0.64063
H          1.81183        1.85247        0.79338
H         -0.67784        2.05632        0.76487
H          3.61115       -1.02203       -0.72102
H          3.77966        0.60653       -0.13444
H          4.33378        1.05593        2.21390
H          5.14647        0.16749        4.36548
H          5.09462       -2.26843        4.81364
H          4.22875       -3.82818        3.09468
H          3.42030       -2.96968        0.93083
