30

C          0.95144        0.94955        0.40742
C         -0.00188        1.18168       -0.75459
C          0.67793        1.06402       -2.10291
C          1.06251        2.24404       -2.75146
C          1.68432        2.22251       -4.00945
C          2.06131        3.40875       -4.66206
C          2.66980        3.36593       -5.90889
C          2.90115        2.13716       -6.50065
C          2.52177        0.97744       -5.83683
N          1.92542        1.01401       -4.61652
C          1.56767       -0.13633       -3.99358
C          0.94889       -0.15496       -2.73668
C          0.60993       -1.50450       -2.13744
C          1.84959       -2.26689       -1.68583
H          1.34297       -0.07127        0.41097
H          0.43206        1.10970        1.35772
H          1.80336        1.63640        0.36586
H         -0.85441        0.49621       -0.69862
H         -0.44005        2.18312       -0.65311
H          0.87037        3.20397       -2.27010
H          1.87811        4.37671       -4.19680
H          2.95967        4.28671       -6.41335
H          3.37633        2.08005       -7.47804
H          2.69589        0.00240       -6.28612
H          1.78332       -1.06560       -4.51747
H         -0.07601       -1.41004       -1.29156
H          0.06961       -2.09587       -2.88764
H          2.42621       -1.69444       -0.95239
H          1.56035       -3.21693       -1.22532
H          2.51227       -2.49200       -2.52800
