 xtb: 6.7.1 (edcfbbe)
          12202402043D

 62 63  0     0  0            999 V2000
    0.4125    0.5826    0.9795 C   0  0  0  0  0  0  0  0  0  0  0  0
    0.5298    1.7699    0.0314 C   0  0  0  0  0  0  0  0  0  0  0  0
    1.0418    1.3846   -1.3572 C   0  0  0  0  0  0  0  0  0  0  0  0
    0.1288    0.4421   -2.1447 C   0  0  0  0  0  0  0  0  0  0  0  0
   -1.2813    0.9744   -2.4100 C   0  0  0  0  0  0  0  0  0  0  0  0
   -1.3407    2.3167   -3.1421 C   0  0  0  0  0  0  0  0  0  0  0  0
   -0.6304    2.3452   -4.4967 C   0  0  0  0  0  0  0  0  0  0  0  0
   -1.1624    1.3478   -5.5281 C   0  0  0  0  0  0  0  0  0  0  0  0
   -2.6420    1.5104   -5.8884 C   0  0  0  0  0  0  0  0  0  0  0  0
   -3.0400    2.9028   -6.3801 C   0  0  0  0  0  0  0  0  0  0  0  0
   -2.3066    3.3598   -7.6470 C   0  0  0  0  0  0  0  0  0  0  0  0
   -2.6760    2.5678   -8.7973 N   0  0  0  0  0  0  0  0  0  0  0  0
   -2.0981    1.3980   -9.1868 C   0  0  0  0  0  0  0  0  0  0  0  0
   -2.7681    0.9588  -10.2877 C   0  0  0  0  0  0  0  0  0  0  0  0
   -3.7480    1.8675  -10.5534 N   0  0  0  0  0  0  0  0  0  0  0  0
   -3.6750    2.8289   -9.6371 C   0  0  0  0  0  0  0  0  0  0  0  0
   -4.6600    1.8103  -11.6477 C   0  0  0  0  0  0  0  0  0  0  0  0
   -5.5892    0.7686  -11.7027 C   0  0  0  0  0  0  0  0  0  0  0  0
   -5.6687   -0.2788  -10.6340 C   0  0  0  0  0  0  0  0  0  0  0  0
   -6.4561    0.7262  -12.7832 C   0  0  0  0  0  0  0  0  0  0  0  0
   -6.4146    1.6798  -13.7928 C   0  0  0  0  0  0  0  0  0  0  0  0
   -5.4762    2.7000  -13.7049 C   0  0  0  0  0  0  0  0  0  0  0  0
   -4.5889    2.7876  -12.6434 C   0  0  0  0  0  0  0  0  0  0  0  0
   -3.5886    3.9032  -12.5948 C   0  0  0  0  0  0  0  0  0  0  0  0
   -7.3422    1.5935  -14.9589 C   0  0  0  0  0  0  0  0  0  0  0  0
   -0.3482   -0.1172    0.6429 H   0  0  0  0  0  0  0  0  0  0  0  0
    0.1398    0.9230    1.9756 H   0  0  0  0  0  0  0  0  0  0  0  0
    1.3613    0.0548    1.0469 H   0  0  0  0  0  0  0  0  0  0  0  0
   -0.4384    2.2669   -0.0518 H   0  0  0  0  0  0  0  0  0  0  0  0
    1.2288    2.4926    0.4592 H   0  0  0  0  0  0  0  0  0  0  0  0
    1.2077    2.2969   -1.9345 H   0  0  0  0  0  0  0  0  0  0  0  0
    2.0121    0.8945   -1.2443 H   0  0  0  0  0  0  0  0  0  0  0  0
    0.6154    0.2112   -3.0954 H   0  0  0  0  0  0  0  0  0  0  0  0
    0.0362   -0.4996   -1.6010 H   0  0  0  0  0  0  0  0  0  0  0  0
   -1.8293    0.2214   -2.9820 H   0  0  0  0  0  0  0  0  0  0  0  0
   -1.8035    1.0889   -1.4587 H   0  0  0  0  0  0  0  0  0  0  0  0
   -2.3904    2.5915   -3.2715 H   0  0  0  0  0  0  0  0  0  0  0  0
   -0.8879    3.0838   -2.5121 H   0  0  0  0  0  0  0  0  0  0  0  0
   -0.6925    3.3600   -4.8983 H   0  0  0  0  0  0  0  0  0  0  0  0
    0.4284    2.1319   -4.3441 H   0  0  0  0  0  0  0  0  0  0  0  0
   -0.5443    1.4286   -6.4269 H   0  0  0  0  0  0  0  0  0  0  0  0
   -1.0249    0.3361   -5.1451 H   0  0  0  0  0  0  0  0  0  0  0  0
   -2.9043    0.7634   -6.6435 H   0  0  0  0  0  0  0  0  0  0  0  0
   -3.2425    1.2906   -5.0056 H   0  0  0  0  0  0  0  0  0  0  0  0
   -4.1163    2.9214   -6.5671 H   0  0  0  0  0  0  0  0  0  0  0  0
   -2.8302    3.6340   -5.6007 H   0  0  0  0  0  0  0  0  0  0  0  0
   -2.5560    4.4018   -7.8575 H   0  0  0  0  0  0  0  0  0  0  0  0
   -1.2284    3.2777   -7.5043 H   0  0  0  0  0  0  0  0  0  0  0  0
   -1.2613    0.9697   -8.6749 H   0  0  0  0  0  0  0  0  0  0  0  0
   -2.6133    0.0922  -10.8964 H   0  0  0  0  0  0  0  0  0  0  0  0
   -4.3235    3.6812   -9.5877 H   0  0  0  0  0  0  0  0  0  0  0  0
   -6.6749   -0.6863  -10.5893 H   0  0  0  0  0  0  0  0  0  0  0  0
   -4.9922   -1.1035  -10.8583 H   0  0  0  0  0  0  0  0  0  0  0  0
   -5.4140    0.1155   -9.6521 H   0  0  0  0  0  0  0  0  0  0  0  0
   -7.1821   -0.0706  -12.8371 H   0  0  0  0  0  0  0  0  0  0  0  0
   -5.4297    3.4454  -14.4841 H   0  0  0  0  0  0  0  0  0  0  0  0
   -3.3667    4.2426  -13.6026 H   0  0  0  0  0  0  0  0  0  0  0  0
   -3.9916    4.7545  -12.0461 H   0  0  0  0  0  0  0  0  0  0  0  0
   -2.6554    3.5990  -12.1246 H   0  0  0  0  0  0  0  0  0  0  0  0
   -6.9104    0.9465  -15.7227 H   0  0  0  0  0  0  0  0  0  0  0  0
   -8.2985    1.1687  -14.6655 H   0  0  0  0  0  0  0  0  0  0  0  0
   -7.5062    2.5718  -15.4021 H   0  0  0  0  0  0  0  0  0  0  0  0
  1  2  1  0  0  0  0
  2  3  1  0  0  0  0
  3  4  1  0  0  0  0
  4  5  1  0  0  0  0
  5  6  1  0  0  0  0
  6  7  1  0  0  0  0
  7  8  1  0  0  0  0
  8  9  1  0  0  0  0
  9 10  1  0  0  0  0
 10 11  1  0  0  0  0
 11 12  1  0  0  0  0
 12 13  4  0  0  0  0
 13 14  2  0  0  0  0
 14 15  4  0  0  0  0
 12 16  4  0  0  0  0
 15 16  4  0  0  0  0
 15 17  1  0  0  0  0
 17 18  4  0  0  0  0
 18 19  1  0  0  0  0
 18 20  4  0  0  0  0
 20 21  4  0  0  0  0
 21 22  4  0  0  0  0
 17 23  4  0  0  0  0
 22 23  4  0  0  0  0
 23 24  1  0  0  0  0
 21 25  1  0  0  0  0
  1 26  1  0  0  0  0
  1 27  1  0  0  0  0
  1 28  1  0  0  0  0
  2 29  1  0  0  0  0
  2 30  1  0  0  0  0
  3 31  1  0  0  0  0
  3 32  1  0  0  0  0
  4 33  1  0  0  0  0
  4 34  1  0  0  0  0
  5 35  1  0  0  0  0
  5 36  1  0  0  0  0
  6 37  1  0  0  0  0
  6 38  1  0  0  0  0
  7 39  1  0  0  0  0
  7 40  1  0  0  0  0
  8 41  1  0  0  0  0
  8 42  1  0  0  0  0
  9 43  1  0  0  0  0
  9 44  1  0  0  0  0
 10 45  1  0  0  0  0
 10 46  1  0  0  0  0
 11 47  1  0  0  0  0
 11 48  1  0  0  0  0
 13 49  1  0  0  0  0
 14 50  1  0  0  0  0
 16 51  1  0  0  0  0
 19 52  1  0  0  0  0
 19 53  1  0  0  0  0
 19 54  1  0  0  0  0
 20 55  1  0  0  0  0
 22 56  1  0  0  0  0
 24 57  1  0  0  0  0
 24 58  1  0  0  0  0
 24 59  1  0  0  0  0
 25 60  1  0  0  0  0
 25 61  1  0  0  0  0
 25 62  1  0  0  0  0
M  CHG  1   1   1
M  END
