26

Cl        -2.20364       -0.15016        0.31973
C         -0.48922       -0.08617        0.23186
C          0.24571       -1.26174        0.11219
C          1.63957       -1.20266        0.02551
C          2.30505        0.03302        0.05827
C          1.55557        1.21013        0.18488
C          0.15979        1.14693        0.27155
C          3.79117        0.03301       -0.09460
O          4.37017       -1.01375       -0.38388
C          4.56202        1.33931       -0.00296
N          4.48727        2.11646       -1.25408
C          4.48802        1.60212       -2.55407
C          4.40489        2.66681       -3.40987
N          4.40059        3.78189       -2.61006
C          4.48776        3.45951       -1.31584
O          4.34320        5.10393       -3.04258
H         -0.25736       -2.22604        0.08076
H          2.19820       -2.13341       -0.07455
H          2.01247        2.19321        0.20693
H         -0.42159        2.06224        0.36501
H          4.20347        1.94276        0.83623
H          5.61755        1.11494        0.18832
H          4.53779        0.53526       -2.70536
H          4.35941        2.76301       -4.47965
H          4.53502        4.15361       -0.48500
H          4.29384        5.06253       -4.01657
