 xtb: 6.7.1 (edcfbbe)
          12202402053D

 46 50  0     0  0            999 V2000
    2.3455   -0.0689    2.5045 O   0  0  0  0  0  0  0  0  0  0  0  0
    2.9989    0.1296    1.5088 C   0  0  0  0  0  0  0  0  0  0  0  0
    3.1485    1.4539    0.8827 C   0  0  0  0  0  0  0  0  0  0  0  0
    3.9772    1.6966   -0.2174 C   0  0  0  0  0  0  0  0  0  0  0  0
    4.0868    2.9744   -0.7283 C   0  0  0  0  0  0  0  0  0  0  0  0
    3.3678    4.0083   -0.1424 C   0  0  0  0  0  0  0  0  0  0  0  0
    2.5336    3.7881    0.9449 C   0  0  0  0  0  0  0  0  0  0  0  0
    2.4283    2.5102    1.4537 C   0  0  0  0  0  0  0  0  0  0  0  0
    3.4985    5.3577   -0.6819 N   0  0  0  0  0  0  0  0  0  0  0  0
    4.2342    5.4986   -1.6282 O   0  0  0  0  0  0  0  0  0  0  0  0
    2.8635    6.2275   -0.1388 O   0  0  0  0  0  0  0  0  0  0  0  0
    3.7529   -1.0511    0.8593 C   0  0  0  0  0  0  0  0  0  0  0  0
    3.4193   -2.2645    1.5526 N   0  0  0  0  0  0  0  0  0  0  0  0
    3.7212   -2.5241    2.8343 C   0  0  0  0  0  0  0  0  0  0  0  0
    4.6539   -1.7394    3.6657 C   0  0  0  0  0  0  0  0  0  0  0  0
    3.1097   -3.6448    3.2268 N   0  0  0  0  0  0  0  0  0  0  0  0
    2.3629   -4.1337    2.1695 C   0  0  0  0  0  0  0  0  0  0  0  0
    2.5503   -3.2425    1.1003 C   0  0  0  0  0  0  0  0  0  0  0  0
    1.9202   -3.4457   -0.1197 C   0  0  0  0  0  0  0  0  0  0  0  0
    1.1067   -4.5562   -0.2271 C   0  0  0  0  0  0  0  0  0  0  0  0
    0.9153   -5.4358    0.8406 C   0  0  0  0  0  0  0  0  0  0  0  0
    1.5351   -5.2420    2.0583 C   0  0  0  0  0  0  0  0  0  0  0  0
    3.1673   -4.2336    4.5202 C   0  0  0  0  0  0  0  0  0  0  0  0
    3.5994   -5.5465    4.6519 C   0  0  0  0  0  0  0  0  0  0  0  0
    3.6409   -6.1206    5.9106 C   0  0  0  0  0  0  0  0  0  0  0  0
    3.2519   -5.3909    7.0226 C   0  0  0  0  0  0  0  0  0  0  0  0
    2.8168   -4.0829    6.8812 C   0  0  0  0  0  0  0  0  0  0  0  0
    2.7712   -3.4963    5.6286 C   0  0  0  0  0  0  0  0  0  0  0  0
    4.5442    0.9037   -0.6778 H   0  0  0  0  0  0  0  0  0  0  0  0
    4.7227    3.1903   -1.5738 H   0  0  0  0  0  0  0  0  0  0  0  0
    1.9883    4.6157    1.3727 H   0  0  0  0  0  0  0  0  0  0  0  0
    1.7907    2.3040    2.2998 H   0  0  0  0  0  0  0  0  0  0  0  0
    3.4635   -1.1526   -0.1871 H   0  0  0  0  0  0  0  0  0  0  0  0
    4.8291   -0.8625    0.9164 H   0  0  0  0  0  0  0  0  0  0  0  0
    4.1735   -0.8272    4.0214 H   0  0  0  0  0  0  0  0  0  0  0  0
    4.9669   -2.3221    4.5287 H   0  0  0  0  0  0  0  0  0  0  0  0
    5.5327   -1.4520    3.0904 H   0  0  0  0  0  0  0  0  0  0  0  0
    2.0484   -2.7732   -0.9522 H   0  0  0  0  0  0  0  0  0  0  0  0
    0.6002   -4.7478   -1.1594 H   0  0  0  0  0  0  0  0  0  0  0  0
    0.2643   -6.2850    0.7087 H   0  0  0  0  0  0  0  0  0  0  0  0
    1.3827   -5.9131    2.8876 H   0  0  0  0  0  0  0  0  0  0  0  0
    3.9095   -6.1037    3.7809 H   0  0  0  0  0  0  0  0  0  0  0  0
    3.9793   -7.1386    6.0209 H   0  0  0  0  0  0  0  0  0  0  0  0
    3.2854   -5.8434    8.0009 H   0  0  0  0  0  0  0  0  0  0  0  0
    2.5075   -3.5172    7.7457 H   0  0  0  0  0  0  0  0  0  0  0  0
    2.4155   -2.4849    5.5051 H   0  0  0  0  0  0  0  0  0  0  0  0
  1  2  2  0  0  0  0
  2  3  1  0  0  0  0
  3  4  4  0  0  0  0
  4  5  4  0  0  0  0
  5  6  4  0  0  0  0
  6  7  4  0  0  0  0
  3  8  4  0  0  0  0
  7  8  4  0  0  0  0
  6  9  1  0  0  0  0
  9 10  4  0  0  0  0
  9 11  4  0  0  0  0
 10 11  1  0  0  0  0
  2 12  1  0  0  0  0
 12 13  1  0  0  0  0
 13 14  4  0  0  0  0
 14 15  1  0  0  0  0
 14 16  4  0  0  0  0
 16 17  1  0  0  0  0
 13 18  1  0  0  0  0
 17 18  4  0  0  0  0
 18 19  4  0  0  0  0
 19 20  4  0  0  0  0
 20 21  4  0  0  0  0
 17 22  4  0  0  0  0
 21 22  4  0  0  0  0
 16 23  1  0  0  0  0
 23 24  4  0  0  0  0
 24 25  4  0  0  0  0
 25 26  4  0  0  0  0
 26 27  4  0  0  0  0
 23 28  4  0  0  0  0
 27 28  4  0  0  0  0
  4 29  1  0  0  0  0
  5 30  1  0  0  0  0
  7 31  1  0  0  0  0
  8 32  1  0  0  0  0
 12 33  1  0  0  0  0
 12 34  1  0  0  0  0
 15 35  1  0  0  0  0
 15 36  1  0  0  0  0
 15 37  1  0  0  0  0
 19 38  1  0  0  0  0
 20 39  1  0  0  0  0
 21 40  1  0  0  0  0
 22 41  1  0  0  0  0
 24 42  1  0  0  0  0
 25 43  1  0  0  0  0
 26 44  1  0  0  0  0
 27 45  1  0  0  0  0
 28 46  1  0  0  0  0
M  CHG  1   1   1
M  END
