 xtb: 6.7.1 (edcfbbe)
          12202402043D

 26 27  0     0  0            999 V2000
   -1.4997   -1.7711    2.2115 Cl  0  0  0  0  0  0  0  0  0  0  0  0
   -0.2813   -0.9967    1.2938 C   0  0  0  0  0  0  0  0  0  0  0  0
    0.0280   -1.4582    0.0165 C   0  0  0  0  0  0  0  0  0  0  0  0
    1.0097   -0.8274   -0.7120 C   0  0  0  0  0  0  0  0  0  0  0  0
    1.7045    0.2736   -0.1878 C   0  0  0  0  0  0  0  0  0  0  0  0
    1.3828    0.7245    1.0989 C   0  0  0  0  0  0  0  0  0  0  0  0
    0.3999    0.0952    1.8305 C   0  0  0  0  0  0  0  0  0  0  0  0
    2.7314    0.8717   -1.0286 C   0  0  0  0  0  0  0  0  0  0  0  0
    3.0379    0.4827   -2.1311 O   0  0  0  0  0  0  0  0  0  0  0  0
    3.4983    2.1001   -0.4430 C   0  0  0  0  0  0  0  0  0  0  0  0
    4.3751    2.6018   -1.4615 N   0  0  0  0  0  0  0  0  0  0  0  0
    5.4042    1.8967   -1.9994 C   0  0  0  0  0  0  0  0  0  0  0  0
    5.8819    2.6062   -3.0635 C   0  0  0  0  0  0  0  0  0  0  0  0
    5.1114    3.7186   -3.1555 N   0  0  0  0  0  0  0  0  0  0  0  0
    4.1983    3.7054   -2.1897 C   0  0  0  0  0  0  0  0  0  0  0  0
    5.2201    4.7292   -4.0455 O   0  0  0  0  0  0  0  0  0  0  0  0
   -0.5008   -2.3041   -0.3923 H   0  0  0  0  0  0  0  0  0  0  0  0
    1.2650   -1.1701   -1.7033 H   0  0  0  0  0  0  0  0  0  0  0  0
    1.8959    1.5635    1.5413 H   0  0  0  0  0  0  0  0  0  0  0  0
    0.1516    0.4416    2.8209 H   0  0  0  0  0  0  0  0  0  0  0  0
    2.7977    2.8796   -0.1439 H   0  0  0  0  0  0  0  0  0  0  0  0
    4.0783    1.7692    0.4220 H   0  0  0  0  0  0  0  0  0  0  0  0
    5.7286    0.9536   -1.6089 H   0  0  0  0  0  0  0  0  0  0  0  0
    6.6853    2.3847   -3.7371 H   0  0  0  0  0  0  0  0  0  0  0  0
    3.4624    4.4705   -2.0378 H   0  0  0  0  0  0  0  0  0  0  0  0
    5.8601    4.5057   -4.7424 H   0  0  0  0  0  0  0  0  0  0  0  0
  1  2  1  0  0  0  0
  2  3  4  0  0  0  0
  3  4  4  0  0  0  0
  4  5  4  0  0  0  0
  5  6  4  0  0  0  0
  2  7  4  0  0  0  0
  6  7  4  0  0  0  0
  5  8  1  0  0  0  0
  8  9  2  0  0  0  0
  8 10  1  0  0  0  0
 10 11  1  0  0  0  0
 11 12  4  0  0  0  0
 12 13  2  0  0  0  0
 13 14  4  0  0  0  0
 11 15  4  0  0  0  0
 14 15  4  0  0  0  0
 14 16  1  0  0  0  0
  3 17  1  0  0  0  0
  4 18  1  0  0  0  0
  6 19  1  0  0  0  0
  7 20  1  0  0  0  0
 10 21  1  0  0  0  0
 10 22  1  0  0  0  0
 12 23  1  0  0  0  0
 13 24  1  0  0  0  0
 15 25  1  0  0  0  0
 16 26  1  0  0  0  0
M  CHG  1   1   1
M  END
