 xtb: 6.7.1 (edcfbbe)
          12202402043D

 32 31  0     0  0            999 V2000
    1.9425    0.0917    0.1852 C   0  0  0  0  0  0  0  0  0  0  0  0
    0.7328    1.0048    0.3461 C   0  0  0  0  0  0  0  0  0  0  0  0
    0.5870    2.0047   -0.8074 C   0  0  0  0  0  0  0  0  0  0  0  0
    0.1949    1.3683   -2.1476 C   0  0  0  0  0  0  0  0  0  0  0  0
   -1.2391    1.4949   -2.5590 N   0  0  0  0  0  0  0  0  0  0  0  0
   -1.6217    2.9159   -2.8321 C   0  0  0  0  0  0  0  0  0  0  0  0
   -0.9697    3.5947   -4.0445 C   0  0  0  0  0  0  0  0  0  0  0  0
   -1.8311    3.5774   -5.3045 C   0  0  0  0  0  0  0  0  0  0  0  0
   -1.4440    0.6683   -3.7634 C   0  0  0  0  0  0  0  0  0  0  0  0
   -2.1215    0.9757   -1.4969 C   0  0  0  0  0  0  0  0  0  0  0  0
    1.8641   -0.5418   -0.6955 H   0  0  0  0  0  0  0  0  0  0  0  0
    2.0344   -0.5558    1.0522 H   0  0  0  0  0  0  0  0  0  0  0  0
    2.8537    0.6780    0.1031 H   0  0  0  0  0  0  0  0  0  0  0  0
   -0.1685    0.4003    0.4557 H   0  0  0  0  0  0  0  0  0  0  0  0
    0.8534    1.5750    1.2679 H   0  0  0  0  0  0  0  0  0  0  0  0
   -0.1178    2.7842   -0.5188 H   0  0  0  0  0  0  0  0  0  0  0  0
    1.5516    2.4969   -0.9394 H   0  0  0  0  0  0  0  0  0  0  0  0
    0.7950    1.8021   -2.9473 H   0  0  0  0  0  0  0  0  0  0  0  0
    0.4228    0.3018   -2.1075 H   0  0  0  0  0  0  0  0  0  0  0  0
   -2.7057    2.9407   -2.9632 H   0  0  0  0  0  0  0  0  0  0  0  0
   -1.3854    3.4847   -1.9327 H   0  0  0  0  0  0  0  0  0  0  0  0
   -0.8011    4.6382   -3.7747 H   0  0  0  0  0  0  0  0  0  0  0  0
    0.0107    3.1715   -4.2617 H   0  0  0  0  0  0  0  0  0  0  0  0
   -2.8058    4.0152   -5.1053 H   0  0  0  0  0  0  0  0  0  0  0  0
   -1.3526    4.1749   -6.0752 H   0  0  0  0  0  0  0  0  0  0  0  0
   -1.9756    2.5783   -5.7043 H   0  0  0  0  0  0  0  0  0  0  0  0
   -1.2792   -0.3821   -3.5283 H   0  0  0  0  0  0  0  0  0  0  0  0
   -2.4637    0.7868   -4.1246 H   0  0  0  0  0  0  0  0  0  0  0  0
   -0.7516    0.9583   -4.5496 H   0  0  0  0  0  0  0  0  0  0  0  0
   -1.8331   -0.0422   -1.2413 H   0  0  0  0  0  0  0  0  0  0  0  0
   -2.0582    1.5945   -0.6053 H   0  0  0  0  0  0  0  0  0  0  0  0
   -3.1546    0.9666   -1.8404 H   0  0  0  0  0  0  0  0  0  0  0  0
  1  2  1  0  0  0  0
  2  3  1  0  0  0  0
  3  4  1  0  0  0  0
  4  5  1  0  0  0  0
  5  6  1  0  0  0  0
  6  7  1  0  0  0  0
  7  8  1  0  0  0  0
  5  9  1  0  0  0  0
  5 10  1  0  0  0  0
  1 11  1  0  0  0  0
  1 12  1  0  0  0  0
  1 13  1  0  0  0  0
  2 14  1  0  0  0  0
  2 15  1  0  0  0  0
  3 16  1  0  0  0  0
  3 17  1  0  0  0  0
  4 18  1  0  0  0  0
  4 19  1  0  0  0  0
  6 20  1  0  0  0  0
  6 21  1  0  0  0  0
  7 22  1  0  0  0  0
  7 23  1  0  0  0  0
  8 24  1  0  0  0  0
  8 25  1  0  0  0  0
  8 26  1  0  0  0  0
  9 27  1  0  0  0  0
  9 28  1  0  0  0  0
  9 29  1  0  0  0  0
 10 30  1  0  0  0  0
 10 31  1  0  0  0  0
 10 32  1  0  0  0  0
M  CHG  1   1   1
M  END
