46

O          0.91453       -0.29055        1.08329
C          2.02136       -0.13689        0.56824
C          2.69149        1.19190        0.67656
C          3.74008        1.58336       -0.16497
C          4.42449        2.78120        0.08022
C          4.05041        3.59375        1.16075
C          2.97271        3.23222        1.97661
C          2.29341        2.03609        1.72730
N          4.81191        4.81600        1.45503
O          5.77538        5.07681        0.72245
O          4.45861        5.48947        2.43131
C          2.78908       -1.31609       -0.02513
N          2.82277       -2.43756        0.93995
C          3.30312       -2.34935        2.20124
C          4.12787       -1.22492        2.75450
N          2.95182       -3.47705        2.85494
C          2.42680       -4.39641        1.94891
C          2.33049       -3.72299        0.72330
C          1.80963       -4.33368       -0.41668
C          1.39206       -5.66351       -0.27226
C          1.47802       -6.33616        0.95967
C          1.98735       -5.71111        2.10449
C          3.10414       -3.65074        4.29086
C          3.78793       -4.75861        4.77526
C          3.95811       -4.88355        6.15381
C          3.44012       -3.91212        7.01630
C          2.74721       -2.81103        6.50781
C          2.57646       -2.67418        5.13217
H          4.05135        0.98857       -1.01998
H          5.25005        3.06570       -0.57244
H          2.65866        3.85876        2.81093
H          1.46311        1.75856        2.37793
H          2.28417       -1.61450       -0.94775
H          3.82655       -1.07488       -0.26365
H          3.44484       -0.50893        3.21042
H          4.82556       -1.63956        3.48289
H          4.68880       -0.78082        1.93204
H          1.72845       -3.81828       -1.36511
H          0.97962       -6.19055       -1.13377
H          1.12859       -7.36736        1.02661
H          2.02742       -6.22322        3.05773
H          4.21954       -5.49827        4.11041
H          4.50054       -5.73325        6.56454
H          3.57412       -4.01609        8.09239
H          2.33544       -2.06857        7.18910
H          2.00769       -1.83576        4.74408
