54

C          1.47122       -0.20447       -0.01610
O          0.57263       -1.02670       -0.75513
C          0.92338       -1.33468       -2.03386
C          2.20827       -1.22584       -2.58048
C          2.47917       -1.55618       -3.92601
C          1.47928       -2.00011       -4.80897
C          0.19089       -2.10234       -4.25499
C         -0.06430       -1.81343       -2.90559
N         -1.41173       -2.13281       -2.68850
C         -2.12577       -2.12179       -1.40255
C         -1.66181       -3.16089       -0.38712
O         -1.32219       -2.84077        0.75197
C         -1.78793       -4.61464       -0.68989
C         -1.40281       -5.17719       -1.91051
C         -1.54265       -6.55294       -2.12998
C         -2.05742       -7.37388       -1.11852
C         -2.42343       -6.82619        0.11571
C         -2.28218       -5.44955        0.32639
N         -2.20239       -8.81638       -1.35660
O         -1.94639       -9.23497       -2.49469
O         -2.58029       -9.51953       -0.41122
C         -1.99404       -2.40573       -3.86128
N         -1.04635       -2.47362       -4.80356
C         -1.33163       -2.88062       -6.18200
C         -1.59402       -4.36504       -6.17823
C         -2.90589       -4.86288       -6.12022
C         -3.13923       -6.23803       -6.07167
C         -2.06835       -7.12861       -6.08709
C         -0.76246       -6.64747       -6.15115
C         -0.52452       -5.27306       -6.19044
O          1.67016       -2.33594       -6.11786
C          3.00820       -2.32487       -6.60935
H          0.97122        0.08430        0.91331
H          1.71178        0.71240       -0.56520
H          2.37870       -0.75642        0.24685
H          3.04599       -0.89177       -1.96968
H          3.51052       -1.44628       -4.25874
H         -2.02494       -1.12110       -0.96830
H         -3.19445       -2.28178       -1.58639
H         -0.94479       -4.59282       -2.69795
H         -1.22896       -6.97240       -3.08478
H         -2.80869       -7.45092        0.92071
H         -2.55454       -5.03362        1.29720
H         -3.04909       -2.60407       -4.01111
H         -2.21702       -2.32972       -6.52181
H         -0.52508       -2.62117       -6.86844
H         -3.76236       -4.19196       -6.12856
H         -4.15706       -6.62185       -6.03655
H         -2.25152       -8.20153       -6.05889
H          0.06945       -7.34864       -6.17713
H          0.50350       -4.91941       -6.24314
H          3.42472       -1.31270       -6.58995
H          3.63854       -3.02504       -6.05113
H          2.98276       -2.65644       -7.65173
