63

C          1.97638        0.21727        0.39443
N          1.10743        0.80734        1.50878
C          1.62143        0.19660        2.83643
C          0.99306        0.86007        4.05607
C          1.19135        2.36883        4.04755
C          0.70444        2.98870        2.74568
C          1.34279        2.32655        1.53255
C         -0.37936        0.40861        1.30595
C         -1.02135        0.83484       -0.02325
C         -0.85690       -0.11236       -1.22139
C         -1.41147       -1.52914       -1.03907
C         -2.93715       -1.62990       -0.93803
C         -3.71609       -1.13268       -2.16278
C         -3.30651       -1.74769       -3.50675
C         -3.40909       -3.27452       -3.59222
C         -4.82013       -3.84774       -3.42491
C         -5.85053       -3.37048       -4.45438
C         -5.49368       -3.64259       -5.91998
C         -5.27662       -5.11541       -6.28399
C         -6.46878       -6.04059       -6.02712
C         -7.71165       -5.66095       -6.81741
H          1.79052        0.77671       -0.52476
H          1.72993       -0.84252        0.28601
H          3.02953        0.33373        0.66955
H          2.70914        0.33759        2.85814
H          1.40932       -0.87811        2.81159
H          1.44837        0.44364        4.96245
H         -0.07487        0.62438        4.11778
H          0.66314        2.81910        4.89531
H          2.25669        2.59559        4.18145
H         -0.38789        2.93097        2.68797
H          0.95430        4.05626        2.74232
H          0.96387        2.75197        0.59981
H          2.42957        2.47840        1.55405
H         -0.43937       -0.67285        1.45744
H         -0.94037        0.87695        2.11912
H         -2.09856        0.94176        0.15938
H         -0.68555        1.83276       -0.31884
H         -1.33458        0.35503       -2.09062
H          0.19643       -0.19847       -1.49527
H         -1.06695       -2.14119       -1.88081
H         -0.96962       -1.99402       -0.15165
H         -3.20028       -2.67840       -0.75251
H         -3.28325       -1.07857       -0.05582
H         -4.78417       -1.31275       -1.99142
H         -3.61123       -0.04348       -2.23614
H         -3.91568       -1.29409       -4.29725
H         -2.27439       -1.45756       -3.73655
H         -2.99938       -3.59550       -4.55718
H         -2.75888       -3.72899       -2.83577
H         -4.75526       -4.94185       -3.46003
H         -5.19346       -3.60789       -2.42231
H         -6.81484       -3.83800       -4.22265
H         -6.01217       -2.29297       -4.33172
H         -6.28636       -3.22621       -6.55296
H         -4.58813       -3.08364       -6.18417
H         -5.01219       -5.17019       -7.34775
H         -4.40810       -5.50364       -5.73928
H         -6.17873       -7.06082       -6.30653
H         -6.70833       -6.06975       -4.95876
H         -7.49391       -5.60377       -7.88865
H         -8.49439       -6.41217       -6.67101
H         -8.11405       -4.69669       -6.49356
