22

C          0.57877        0.03076        0.35480
C          0.46475        1.51204        0.02855
C          1.38631        1.93883       -1.10869
N          0.94211        1.42640       -2.40895
C          1.41442        0.29027       -3.04805
C          0.75369        0.20433       -4.24076
N         -0.09887        1.29384       -4.30463
C          0.02599        2.02436       -3.18672
C         -0.98264        1.62936       -5.41351
H          0.24284       -0.58963       -0.48104
H         -0.04309       -0.21273        1.22217
H          1.61226       -0.24022        0.59359
H         -0.57600        1.74850       -0.22020
H          0.72347        2.08632        0.92563
H          1.40180        3.03294       -1.17878
H          2.41626        1.61019       -0.92968
H          2.16312       -0.31392       -2.56492
H          0.78291       -0.49274       -5.06074
H         -0.51055        2.93774       -2.95613
H         -1.91478        2.04424       -5.02077
H         -0.48584        2.36984       -6.04592
H         -1.20596        0.73353       -5.99896
