 xtb: 6.7.1 (edcfbbe)
          12202402053D

 61 65  0     0  0            999 V2000
    3.3490   -0.6162    2.1792 O   0  0  0  0  0  0  0  0  0  0  0  0
    3.2012   -0.1357    1.0790 C   0  0  0  0  0  0  0  0  0  0  0  0
    3.4775    1.2594    0.7426 C   0  0  0  0  0  0  0  0  0  0  0  0
    3.2342    1.8153   -0.5180 C   0  0  0  0  0  0  0  0  0  0  0  0
    3.5147    3.1473   -0.7495 C   0  0  0  0  0  0  0  0  0  0  0  0
    4.0390    3.9414    0.2609 C   0  0  0  0  0  0  0  0  0  0  0  0
    4.2826    3.4010    1.5147 C   0  0  0  0  0  0  0  0  0  0  0  0
    4.0037    2.0714    1.7554 C   0  0  0  0  0  0  0  0  0  0  0  0
    2.6675   -1.0444   -0.0591 C   0  0  0  0  0  0  0  0  0  0  0  0
    2.6202   -2.3996    0.4118 N   0  0  0  0  0  0  0  0  0  0  0  0
    1.9006   -2.7984    1.4624 C   0  0  0  0  0  0  0  0  0  0  0  0
    2.1700   -4.0702    1.7295 N   0  0  0  0  0  0  0  0  0  0  0  0
    3.1065   -4.4931    0.8338 C   0  0  0  0  0  0  0  0  0  0  0  0
    3.4065   -3.4495    0.0072 C   0  0  0  0  0  0  0  0  0  0  0  0
    4.3632   -3.3777   -1.1214 C   0  0  0  0  0  0  0  0  0  0  0  0
    1.5342   -4.8298    2.8206 C   0  0  0  0  0  0  0  0  0  0  0  0
    2.1536   -4.4417    4.1632 C   0  0  0  0  0  0  0  0  0  0  0  0
    1.9412   -5.2989    5.2417 C   0  0  0  0  0  0  0  0  0  0  0  0
    2.4578   -5.0031    6.4888 C   0  0  0  0  0  0  0  0  0  0  0  0
    3.1982   -3.8479    6.6788 C   0  0  0  0  0  0  0  0  0  0  0  0
    3.4105   -2.9932    5.6134 C   0  0  0  0  0  0  0  0  0  0  0  0
    2.8904   -3.2835    4.3613 C   0  0  0  0  0  0  0  0  0  0  0  0
    0.0476   -4.4810    2.7683 C   0  0  0  0  0  0  0  0  0  0  0  0
   -0.6811   -4.1571    3.9033 C   0  0  0  0  0  0  0  0  0  0  0  0
   -2.0304   -3.8555    3.8076 C   0  0  0  0  0  0  0  0  0  0  0  0
   -2.6678   -3.8717    2.5805 C   0  0  0  0  0  0  0  0  0  0  0  0
   -1.9477   -4.1925    1.4413 C   0  0  0  0  0  0  0  0  0  0  0  0
   -0.6017   -4.4936    1.5339 C   0  0  0  0  0  0  0  0  0  0  0  0
    1.7920   -6.3188    2.5912 C   0  0  0  0  0  0  0  0  0  0  0  0
    0.7989   -7.2020    2.1940 C   0  0  0  0  0  0  0  0  0  0  0  0
    1.0896   -8.5447    2.0095 C   0  0  0  0  0  0  0  0  0  0  0  0
    2.3710   -9.0200    2.2196 C   0  0  0  0  0  0  0  0  0  0  0  0
    3.3659   -8.1466    2.6282 C   0  0  0  0  0  0  0  0  0  0  0  0
    3.0783   -6.8081    2.8173 C   0  0  0  0  0  0  0  0  0  0  0  0
    2.8196    1.2222   -1.3181 H   0  0  0  0  0  0  0  0  0  0  0  0
    3.3238    3.5722   -1.7229 H   0  0  0  0  0  0  0  0  0  0  0  0
    4.2557    4.9808    0.0689 H   0  0  0  0  0  0  0  0  0  0  0  0
    4.6871    4.0180    2.3016 H   0  0  0  0  0  0  0  0  0  0  0  0
    4.1844    1.6319    2.7246 H   0  0  0  0  0  0  0  0  0  0  0  0
    1.6635   -0.7034   -0.3279 H   0  0  0  0  0  0  0  0  0  0  0  0
    3.3179   -0.9855   -0.9309 H   0  0  0  0  0  0  0  0  0  0  0  0
    1.1889   -2.1922    1.9867 H   0  0  0  0  0  0  0  0  0  0  0  0
    3.4900   -5.4919    0.8282 H   0  0  0  0  0  0  0  0  0  0  0  0
    3.8609   -3.0967   -2.0464 H   0  0  0  0  0  0  0  0  0  0  0  0
    5.1494   -2.6508   -0.9189 H   0  0  0  0  0  0  0  0  0  0  0  0
    4.8257   -4.3496   -1.2638 H   0  0  0  0  0  0  0  0  0  0  0  0
    1.3665   -6.2024    5.1007 H   0  0  0  0  0  0  0  0  0  0  0  0
    2.2815   -5.6782    7.3117 H   0  0  0  0  0  0  0  0  0  0  0  0
    3.6055   -3.6173    7.6507 H   0  0  0  0  0  0  0  0  0  0  0  0
    3.9841   -2.0891    5.7462 H   0  0  0  0  0  0  0  0  0  0  0  0
    3.0805   -2.5863    3.5602 H   0  0  0  0  0  0  0  0  0  0  0  0
   -0.2034   -4.1366    4.8697 H   0  0  0  0  0  0  0  0  0  0  0  0
   -2.5814   -3.6076    4.7013 H   0  0  0  0  0  0  0  0  0  0  0  0
   -3.7187   -3.6395    2.5095 H   0  0  0  0  0  0  0  0  0  0  0  0
   -2.4352   -4.2153    0.4786 H   0  0  0  0  0  0  0  0  0  0  0  0
   -0.0556   -4.7543    0.6368 H   0  0  0  0  0  0  0  0  0  0  0  0
   -0.2120   -6.8584    2.0411 H   0  0  0  0  0  0  0  0  0  0  0  0
    0.3041   -9.2189    1.7052 H   0  0  0  0  0  0  0  0  0  0  0  0
    2.5928  -10.0660    2.0770 H   0  0  0  0  0  0  0  0  0  0  0  0
    4.3664   -8.5086    2.8087 H   0  0  0  0  0  0  0  0  0  0  0  0
    3.8545   -6.1387    3.1613 H   0  0  0  0  0  0  0  0  0  0  0  0
  1  2  2  0  0  0  0
  2  3  1  0  0  0  0
  3  4  4  0  0  0  0
  4  5  4  0  0  0  0
  5  6  4  0  0  0  0
  6  7  4  0  0  0  0
  3  8  4  0  0  0  0
  7  8  4  0  0  0  0
  2  9  1  0  0  0  0
  9 10  1  0  0  0  0
 10 11  4  0  0  0  0
 11 12  4  0  0  0  0
 12 13  4  0  0  0  0
 10 14  1  0  0  0  0
 13 14  2  0  0  0  0
 14 15  1  0  0  0  0
 12 16  1  0  0  0  0
 16 17  1  0  0  0  0
 17 18  4  0  0  0  0
 18 19  4  0  0  0  0
 19 20  4  0  0  0  0
 20 21  4  0  0  0  0
 17 22  4  0  0  0  0
 21 22  4  0  0  0  0
 16 23  1  0  0  0  0
 23 24  4  0  0  0  0
 24 25  4  0  0  0  0
 25 26  4  0  0  0  0
 26 27  4  0  0  0  0
 23 28  4  0  0  0  0
 27 28  4  0  0  0  0
 16 29  1  0  0  0  0
 29 30  4  0  0  0  0
 30 31  4  0  0  0  0
 31 32  4  0  0  0  0
 32 33  4  0  0  0  0
 29 34  4  0  0  0  0
 33 34  4  0  0  0  0
  4 35  1  0  0  0  0
  5 36  1  0  0  0  0
  6 37  1  0  0  0  0
  7 38  1  0  0  0  0
  8 39  1  0  0  0  0
  9 40  1  0  0  0  0
  9 41  1  0  0  0  0
 11 42  1  0  0  0  0
 13 43  1  0  0  0  0
 15 44  1  0  0  0  0
 15 45  1  0  0  0  0
 15 46  1  0  0  0  0
 18 47  1  0  0  0  0
 19 48  1  0  0  0  0
 20 49  1  0  0  0  0
 21 50  1  0  0  0  0
 22 51  1  0  0  0  0
 24 52  1  0  0  0  0
 25 53  1  0  0  0  0
 26 54  1  0  0  0  0
 27 55  1  0  0  0  0
 28 56  1  0  0  0  0
 30 57  1  0  0  0  0
 31 58  1  0  0  0  0
 32 59  1  0  0  0  0
 33 60  1  0  0  0  0
 34 61  1  0  0  0  0
M  CHG  1   1   1
M  END
