61

O          1.06856       -0.03251        1.19565
C          2.13917        0.04470        0.59451
C          3.06242        1.17094        0.90699
C          4.03982        1.62364        0.01347
C          4.89225        2.66738        0.38545
C          4.76540        3.26747        1.63773
C          3.77989        2.83556        2.52153
C          2.92802        1.79283        2.15731
C          2.55988       -1.02334       -0.40689
N          2.47984       -2.40580        0.13527
C          1.76593       -2.78372        1.21110
N          2.07234       -4.06938        1.48478
C          2.79940       -4.57543        0.41682
C          3.08947       -3.53182       -0.43199
C          3.86352       -3.51607       -1.68801
C          1.53266       -4.78394        2.71564
C          2.22692       -4.17847        3.98276
C          1.93806       -4.72629        5.25599
C          2.54433       -4.24049        6.41671
C          3.46861       -3.20586        6.33737
C          3.80029       -2.66990        5.09790
C          3.19776       -3.15780        3.93330
C         -0.00549       -4.49837        2.63703
C         -0.73018       -3.85309        3.65746
C         -2.09537       -3.58030        3.51864
C         -2.76842       -3.92981        2.35322
C         -2.07894       -4.54842        1.31791
C         -0.71646       -4.82331        1.45458
C          1.91025       -6.30075        2.64613
C          0.95531       -7.33283        2.56705
C          1.33902       -8.67770        2.52503
C          2.68333       -9.02830        2.58516
C          3.64968       -8.03687        2.70045
C          3.26918       -6.69332        2.73770
H          4.15530        1.21175       -0.98418
H          5.65360        3.02574       -0.30517
H          5.42744        4.08372        1.92078
H          3.67070        3.31545        3.49203
H          2.15840        1.47388        2.85887
H          1.90359       -0.96092       -1.28092
H          3.59301       -0.87590       -0.72850
H          1.10818       -2.16679        1.81199
H          3.04731       -5.62230        0.36460
H          3.26977       -3.06049       -2.48493
H          4.78290       -2.94158       -1.54631
H          4.12733       -4.53506       -1.98546
H          1.23044       -5.55016        5.35739
H          2.29971       -4.67648        7.38319
H          3.94349       -2.82920        7.24067
H          4.54379       -1.87755        5.03791
H          3.53932       -2.73170        2.99609
H         -0.26456       -3.52918        4.58499
H         -2.63486       -3.08777        4.32594
H         -3.83039       -3.71615        2.25315
H         -2.60448       -4.81906        0.40463
H         -0.20913       -5.30776        0.62108
H         -0.11345       -7.13121        2.55899
H          0.58081       -9.45630        2.46232
H          2.97447      -10.07620        2.56484
H          4.69964       -8.31097        2.77825
H          4.05502       -5.94735        2.85490
