 xtb: 6.7.1 (edcfbbe)
          12202402053D

 89 88  0     0  0            999 V2000
    0.7884    0.6319   -0.2944 C   0  0  0  0  0  0  0  0  0  0  0  0
    0.7517   -0.5476   -1.2589 C   0  0  0  0  0  0  0  0  0  0  0  0
    1.3794   -1.8184   -0.6840 C   0  0  0  0  0  0  0  0  0  0  0  0
    0.6945   -2.3695    0.5686 C   0  0  0  0  0  0  0  0  0  0  0  0
   -0.7866   -2.7128    0.3997 C   0  0  0  0  0  0  0  0  0  0  0  0
   -1.0908   -3.7464   -0.6865 C   0  0  0  0  0  0  0  0  0  0  0  0
   -0.4287   -5.1110   -0.4853 C   0  0  0  0  0  0  0  0  0  0  0  0
   -0.7932   -5.8235    0.8190 C   0  0  0  0  0  0  0  0  0  0  0  0
   -2.2900   -6.0581    1.0320 C   0  0  0  0  0  0  0  0  0  0  0  0
   -2.9765   -6.8652   -0.0711 C   0  0  0  0  0  0  0  0  0  0  0  0
   -2.4397   -8.2841   -0.2671 C   0  0  0  0  0  0  0  0  0  0  0  0
   -2.5392   -9.1960    0.9588 C   0  0  0  0  0  0  0  0  0  0  0  0
   -3.9437   -9.3258    1.5544 C   0  0  0  0  0  0  0  0  0  0  0  0
   -4.9560   -9.9716    0.5951 C   0  0  0  0  0  0  0  0  0  0  0  0
   -5.3661  -11.3875    0.9985 C   0  0  0  0  0  0  0  0  0  0  0  0
   -6.2279  -11.4544    2.2681 C   0  0  0  0  0  0  0  0  0  0  0  0
   -8.0358  -11.3457    1.9907 P   0  0  0  0  0  0  0  0  0  0  0  0
   -8.5093  -12.6025    0.7419 C   0  0  0  0  0  0  0  0  0  0  0  0
   -7.8307  -13.9722    0.8355 C   0  0  0  0  0  0  0  0  0  0  0  0
   -8.1625  -14.7765    2.0922 C   0  0  0  0  0  0  0  0  0  0  0  0
   -9.6171  -15.2278    2.1557 C   0  0  0  0  0  0  0  0  0  0  0  0
   -8.9898  -11.6704    3.5324 C   0  0  0  0  0  0  0  0  0  0  0  0
   -8.1887  -11.6975    4.8360 C   0  0  0  0  0  0  0  0  0  0  0  0
   -7.7776  -10.3081    5.3259 C   0  0  0  0  0  0  0  0  0  0  0  0
   -8.9210   -9.5632    6.0055 C   0  0  0  0  0  0  0  0  0  0  0  0
   -8.6697   -9.7940    1.2362 C   0  0  0  0  0  0  0  0  0  0  0  0
   -8.8047   -8.5666    2.1410 C   0  0  0  0  0  0  0  0  0  0  0  0
   -7.5102   -7.7739    2.3330 C   0  0  0  0  0  0  0  0  0  0  0  0
   -7.1907   -6.8747    1.1443 C   0  0  0  0  0  0  0  0  0  0  0  0
    0.1634    0.4476    0.5757 H   0  0  0  0  0  0  0  0  0  0  0  0
    0.4251    1.5316   -0.7861 H   0  0  0  0  0  0  0  0  0  0  0  0
    1.8058    0.8147    0.0443 H   0  0  0  0  0  0  0  0  0  0  0  0
   -0.2803   -0.7435   -1.5551 H   0  0  0  0  0  0  0  0  0  0  0  0
    1.3025   -0.2789   -2.1637 H   0  0  0  0  0  0  0  0  0  0  0  0
    1.3856   -2.5864   -1.4604 H   0  0  0  0  0  0  0  0  0  0  0  0
    2.4217   -1.6069   -0.4316 H   0  0  0  0  0  0  0  0  0  0  0  0
    1.2374   -3.2615    0.8890 H   0  0  0  0  0  0  0  0  0  0  0  0
    0.7834   -1.6379    1.3741 H   0  0  0  0  0  0  0  0  0  0  0  0
   -1.1645   -3.0745    1.3589 H   0  0  0  0  0  0  0  0  0  0  0  0
   -1.3399   -1.8014    0.1645 H   0  0  0  0  0  0  0  0  0  0  0  0
   -2.1745   -3.8750   -0.7423 H   0  0  0  0  0  0  0  0  0  0  0  0
   -0.7688   -3.3534   -1.6526 H   0  0  0  0  0  0  0  0  0  0  0  0
   -0.6952   -5.7481   -1.3320 H   0  0  0  0  0  0  0  0  0  0  0  0
    0.6556   -4.9892   -0.5111 H   0  0  0  0  0  0  0  0  0  0  0  0
   -0.2699   -6.7822    0.8421 H   0  0  0  0  0  0  0  0  0  0  0  0
   -0.4203   -5.2385    1.6619 H   0  0  0  0  0  0  0  0  0  0  0  0
   -2.4239   -6.5637    1.9916 H   0  0  0  0  0  0  0  0  0  0  0  0
   -2.7935   -5.0922    1.1081 H   0  0  0  0  0  0  0  0  0  0  0  0
   -4.0470   -6.9115    0.1448 H   0  0  0  0  0  0  0  0  0  0  0  0
   -2.8711   -6.3329   -1.0174 H   0  0  0  0  0  0  0  0  0  0  0  0
   -2.9778   -8.7337   -1.1056 H   0  0  0  0  0  0  0  0  0  0  0  0
   -1.3906   -8.2326   -0.5602 H   0  0  0  0  0  0  0  0  0  0  0  0
   -2.1780  -10.1888    0.6785 H   0  0  0  0  0  0  0  0  0  0  0  0
   -1.8746   -8.8182    1.7369 H   0  0  0  0  0  0  0  0  0  0  0  0
   -3.8630   -9.9230    2.4662 H   0  0  0  0  0  0  0  0  0  0  0  0
   -4.2889   -8.3352    1.8500 H   0  0  0  0  0  0  0  0  0  0  0  0
   -5.8444   -9.3479    0.5120 H   0  0  0  0  0  0  0  0  0  0  0  0
   -4.5147  -10.0294   -0.3996 H   0  0  0  0  0  0  0  0  0  0  0  0
   -5.8899  -11.8549    0.1622 H   0  0  0  0  0  0  0  0  0  0  0  0
   -4.4585  -11.9677    1.1768 H   0  0  0  0  0  0  0  0  0  0  0  0
   -6.0866  -12.4225    2.7594 H   0  0  0  0  0  0  0  0  0  0  0  0
   -5.9271  -10.6810    2.9763 H   0  0  0  0  0  0  0  0  0  0  0  0
   -9.5956  -12.7119    0.8083 H   0  0  0  0  0  0  0  0  0  0  0  0
   -8.2904  -12.1604   -0.2358 H   0  0  0  0  0  0  0  0  0  0  0  0
   -8.1430  -14.5505   -0.0368 H   0  0  0  0  0  0  0  0  0  0  0  0
   -6.7484  -13.8522    0.7701 H   0  0  0  0  0  0  0  0  0  0  0  0
   -7.5303  -15.6660    2.0931 H   0  0  0  0  0  0  0  0  0  0  0  0
   -7.9052  -14.1983    2.9838 H   0  0  0  0  0  0  0  0  0  0  0  0
   -9.8617  -15.8302    1.2847 H   0  0  0  0  0  0  0  0  0  0  0  0
   -9.7811  -15.8352    3.0415 H   0  0  0  0  0  0  0  0  0  0  0  0
  -10.3098  -14.3893    2.1915 H   0  0  0  0  0  0  0  0  0  0  0  0
   -9.7728  -10.9105    3.5911 H   0  0  0  0  0  0  0  0  0  0  0  0
   -9.4861  -12.6319    3.3874 H   0  0  0  0  0  0  0  0  0  0  0  0
   -8.8098  -12.1660    5.6020 H   0  0  0  0  0  0  0  0  0  0  0  0
   -7.3041  -12.3256    4.7158 H   0  0  0  0  0  0  0  0  0  0  0  0
   -6.9632  -10.4162    6.0435 H   0  0  0  0  0  0  0  0  0  0  0  0
   -7.4032   -9.7184    4.4853 H   0  0  0  0  0  0  0  0  0  0  0  0
   -9.2471  -10.1002    6.8923 H   0  0  0  0  0  0  0  0  0  0  0  0
   -8.5945   -8.5732    6.3115 H   0  0  0  0  0  0  0  0  0  0  0  0
   -9.7796   -9.4463    5.3477 H   0  0  0  0  0  0  0  0  0  0  0  0
   -8.0525   -9.5666    0.3645 H   0  0  0  0  0  0  0  0  0  0  0  0
   -9.6622  -10.0786    0.8660 H   0  0  0  0  0  0  0  0  0  0  0  0
   -9.5472   -7.9024    1.6936 H   0  0  0  0  0  0  0  0  0  0  0  0
   -9.1935   -8.8661    3.1147 H   0  0  0  0  0  0  0  0  0  0  0  0
   -7.6189   -7.1452    3.2182 H   0  0  0  0  0  0  0  0  0  0  0  0
   -6.6791   -8.4579    2.5164 H   0  0  0  0  0  0  0  0  0  0  0  0
   -7.9780   -6.1381    1.0064 H   0  0  0  0  0  0  0  0  0  0  0  0
   -6.2592   -6.3419    1.3160 H   0  0  0  0  0  0  0  0  0  0  0  0
   -7.0921   -7.4395    0.2196 H   0  0  0  0  0  0  0  0  0  0  0  0
  1  2  1  0  0  0  0
  2  3  1  0  0  0  0
  3  4  1  0  0  0  0
  4  5  1  0  0  0  0
  5  6  1  0  0  0  0
  6  7  1  0  0  0  0
  7  8  1  0  0  0  0
  8  9  1  0  0  0  0
  9 10  1  0  0  0  0
 10 11  1  0  0  0  0
 11 12  1  0  0  0  0
 12 13  1  0  0  0  0
 13 14  1  0  0  0  0
 14 15  1  0  0  0  0
 15 16  1  0  0  0  0
 16 17  1  0  0  0  0
 17 18  1  0  0  0  0
 18 19  1  0  0  0  0
 19 20  1  0  0  0  0
 20 21  1  0  0  0  0
 17 22  1  0  0  0  0
 22 23  1  0  0  0  0
 23 24  1  0  0  0  0
 24 25  1  0  0  0  0
 17 26  1  0  0  0  0
 26 27  1  0  0  0  0
 27 28  1  0  0  0  0
 28 29  1  0  0  0  0
  1 30  1  0  0  0  0
  1 31  1  0  0  0  0
  1 32  1  0  0  0  0
  2 33  1  0  0  0  0
  2 34  1  0  0  0  0
  3 35  1  0  0  0  0
  3 36  1  0  0  0  0
  4 37  1  0  0  0  0
  4 38  1  0  0  0  0
  5 39  1  0  0  0  0
  5 40  1  0  0  0  0
  6 41  1  0  0  0  0
  6 42  1  0  0  0  0
  7 43  1  0  0  0  0
  7 44  1  0  0  0  0
  8 45  1  0  0  0  0
  8 46  1  0  0  0  0
  9 47  1  0  0  0  0
  9 48  1  0  0  0  0
 10 49  1  0  0  0  0
 10 50  1  0  0  0  0
 11 51  1  0  0  0  0
 11 52  1  0  0  0  0
 12 53  1  0  0  0  0
 12 54  1  0  0  0  0
 13 55  1  0  0  0  0
 13 56  1  0  0  0  0
 14 57  1  0  0  0  0
 14 58  1  0  0  0  0
 15 59  1  0  0  0  0
 15 60  1  0  0  0  0
 16 61  1  0  0  0  0
 16 62  1  0  0  0  0
 18 63  1  0  0  0  0
 18 64  1  0  0  0  0
 19 65  1  0  0  0  0
 19 66  1  0  0  0  0
 20 67  1  0  0  0  0
 20 68  1  0  0  0  0
 21 69  1  0  0  0  0
 21 70  1  0  0  0  0
 21 71  1  0  0  0  0
 22 72  1  0  0  0  0
 22 73  1  0  0  0  0
 23 74  1  0  0  0  0
 23 75  1  0  0  0  0
 24 76  1  0  0  0  0
 24 77  1  0  0  0  0
 25 78  1  0  0  0  0
 25 79  1  0  0  0  0
 25 80  1  0  0  0  0
 26 81  1  0  0  0  0
 26 82  1  0  0  0  0
 27 83  1  0  0  0  0
 27 84  1  0  0  0  0
 28 85  1  0  0  0  0
 28 86  1  0  0  0  0
 29 87  1  0  0  0  0
 29 88  1  0  0  0  0
 29 89  1  0  0  0  0
M  CHG  1   1   1
M  END
