 xtb: 6.7.1 (edcfbbe)
          12202402053D

 51 51  0     0  0            999 V2000
    1.0007    0.4925   -0.1773 C   0  0  0  0  0  0  0  0  0  0  0  0
    0.8919   -0.4512   -1.3686 C   0  0  0  0  0  0  0  0  0  0  0  0
    1.2705   -1.8944   -1.0328 C   0  0  0  0  0  0  0  0  0  0  0  0
    0.3841   -2.5683    0.0172 C   0  0  0  0  0  0  0  0  0  0  0  0
   -1.1027   -2.6342   -0.3362 C   0  0  0  0  0  0  0  0  0  0  0  0
   -1.4266   -3.3768   -1.6340 C   0  0  0  0  0  0  0  0  0  0  0  0
   -0.9788   -4.8394   -1.6703 C   0  0  0  0  0  0  0  0  0  0  0  0
   -1.5736   -5.7250   -0.5732 C   0  0  0  0  0  0  0  0  0  0  0  0
   -3.1025   -5.7811   -0.5466 C   0  0  0  0  0  0  0  0  0  0  0  0
   -3.7549   -6.2497   -1.8497 C   0  0  0  0  0  0  0  0  0  0  0  0
   -3.3199   -7.6390   -2.3239 C   0  0  0  0  0  0  0  0  0  0  0  0
   -3.6442   -8.7782   -1.3588 C   0  0  0  0  0  0  0  0  0  0  0  0
   -5.1481   -9.0412   -1.1830 C   0  0  0  0  0  0  0  0  0  0  0  0
   -5.7246   -9.5356   -2.4190 N   0  0  0  0  0  0  0  0  0  0  0  0
   -5.6603  -10.8430   -2.6999 C   0  0  0  0  0  0  0  0  0  0  0  0
   -6.1225  -11.3408   -3.8992 C   0  0  0  0  0  0  0  0  0  0  0  0
   -6.6563  -10.4654   -4.8380 C   0  0  0  0  0  0  0  0  0  0  0  0
   -6.7109   -9.1129   -4.5301 C   0  0  0  0  0  0  0  0  0  0  0  0
   -6.2361   -8.6780   -3.3089 C   0  0  0  0  0  0  0  0  0  0  0  0
    0.2773    0.2383    0.5934 H   0  0  0  0  0  0  0  0  0  0  0  0
    0.8135    1.5170   -0.4906 H   0  0  0  0  0  0  0  0  0  0  0  0
    1.9972    0.4446    0.2563 H   0  0  0  0  0  0  0  0  0  0  0  0
   -0.1224   -0.4158   -1.7704 H   0  0  0  0  0  0  0  0  0  0  0  0
    1.5632   -0.1008   -2.1565 H   0  0  0  0  0  0  0  0  0  0  0  0
    1.2547   -2.4833   -1.9527 H   0  0  0  0  0  0  0  0  0  0  0  0
    2.2979   -1.9052   -0.6607 H   0  0  0  0  0  0  0  0  0  0  0  0
    0.7624   -3.5792    0.1857 H   0  0  0  0  0  0  0  0  0  0  0  0
    0.4835   -2.0318    0.9624 H   0  0  0  0  0  0  0  0  0  0  0  0
   -1.6310   -3.1075    0.4948 H   0  0  0  0  0  0  0  0  0  0  0  0
   -1.4939   -1.6190   -0.4222 H   0  0  0  0  0  0  0  0  0  0  0  0
   -2.5053   -3.3212   -1.8004 H   0  0  0  0  0  0  0  0  0  0  0  0
   -0.9510   -2.8584   -2.4683 H   0  0  0  0  0  0  0  0  0  0  0  0
   -1.2308   -5.2517   -2.6507 H   0  0  0  0  0  0  0  0  0  0  0  0
    0.1077   -4.8803   -1.5814 H   0  0  0  0  0  0  0  0  0  0  0  0
   -1.1702   -6.7342   -0.6876 H   0  0  0  0  0  0  0  0  0  0  0  0
   -1.2370   -5.3603    0.3981 H   0  0  0  0  0  0  0  0  0  0  0  0
   -3.4111   -6.4306    0.2766 H   0  0  0  0  0  0  0  0  0  0  0  0
   -3.4885   -4.7861   -0.3222 H   0  0  0  0  0  0  0  0  0  0  0  0
   -4.8402   -6.2132   -1.7168 H   0  0  0  0  0  0  0  0  0  0  0  0
   -3.5112   -5.5387   -2.6394 H   0  0  0  0  0  0  0  0  0  0  0  0
   -3.7690   -7.8409   -3.3021 H   0  0  0  0  0  0  0  0  0  0  0  0
   -2.2407   -7.6300   -2.4735 H   0  0  0  0  0  0  0  0  0  0  0  0
   -3.1629   -9.6946   -1.7076 H   0  0  0  0  0  0  0  0  0  0  0  0
   -3.2366   -8.5456   -0.3760 H   0  0  0  0  0  0  0  0  0  0  0  0
   -5.2995   -9.7865   -0.4003 H   0  0  0  0  0  0  0  0  0  0  0  0
   -5.6543   -8.1202   -0.8928 H   0  0  0  0  0  0  0  0  0  0  0  0
   -5.2356  -11.4891   -1.9455 H   0  0  0  0  0  0  0  0  0  0  0  0
   -6.0654  -12.3992   -4.0953 H   0  0  0  0  0  0  0  0  0  0  0  0
   -7.0224  -10.8301   -5.7845 H   0  0  0  0  0  0  0  0  0  0  0  0
   -7.1181   -8.3987   -5.2277 H   0  0  0  0  0  0  0  0  0  0  0  0
   -6.2741   -7.6358   -3.0292 H   0  0  0  0  0  0  0  0  0  0  0  0
  1  2  1  0  0  0  0
  2  3  1  0  0  0  0
  3  4  1  0  0  0  0
  4  5  1  0  0  0  0
  5  6  1  0  0  0  0
  6  7  1  0  0  0  0
  7  8  1  0  0  0  0
  8  9  1  0  0  0  0
  9 10  1  0  0  0  0
 10 11  1  0  0  0  0
 11 12  1  0  0  0  0
 12 13  1  0  0  0  0
 13 14  1  0  0  0  0
 14 15  4  0  0  0  0
 15 16  4  0  0  0  0
 16 17  4  0  0  0  0
 17 18  4  0  0  0  0
 14 19  4  0  0  0  0
 18 19  4  0  0  0  0
  1 20  1  0  0  0  0
  1 21  1  0  0  0  0
  1 22  1  0  0  0  0
  2 23  1  0  0  0  0
  2 24  1  0  0  0  0
  3 25  1  0  0  0  0
  3 26  1  0  0  0  0
  4 27  1  0  0  0  0
  4 28  1  0  0  0  0
  5 29  1  0  0  0  0
  5 30  1  0  0  0  0
  6 31  1  0  0  0  0
  6 32  1  0  0  0  0
  7 33  1  0  0  0  0
  7 34  1  0  0  0  0
  8 35  1  0  0  0  0
  8 36  1  0  0  0  0
  9 37  1  0  0  0  0
  9 38  1  0  0  0  0
 10 39  1  0  0  0  0
 10 40  1  0  0  0  0
 11 41  1  0  0  0  0
 11 42  1  0  0  0  0
 12 43  1  0  0  0  0
 12 44  1  0  0  0  0
 13 45  1  0  0  0  0
 13 46  1  0  0  0  0
 15 47  1  0  0  0  0
 16 48  1  0  0  0  0
 17 49  1  0  0  0  0
 18 50  1  0  0  0  0
 19 51  1  0  0  0  0
M  CHG  1   1   1
M  END
