 xtb: 6.7.1 (edcfbbe)
          12202402053D

 38 40  0     0  0            999 V2000
    0.4727    0.5387    0.8757 Br  0  0  0  0  0  0  0  0  0  0  0  0
    2.1480    0.4364   -0.0625 C   0  0  0  0  0  0  0  0  0  0  0  0
    2.3317    1.0741   -1.2026 C   0  0  0  0  0  0  0  0  0  0  0  0
    3.1702   -0.4409    0.6185 C   0  0  0  0  0  0  0  0  0  0  0  0
    3.2381   -0.1835    2.0372 N   0  0  0  0  0  0  0  0  0  0  0  0
    3.7702    0.8990    2.5986 C   0  0  0  0  0  0  0  0  0  0  0  0
    3.5972    0.8898    3.9175 N   0  0  0  0  0  0  0  0  0  0  0  0
    2.9358   -0.2781    4.2496 C   0  0  0  0  0  0  0  0  0  0  0  0
    2.6890   -0.9567    3.0411 C   0  0  0  0  0  0  0  0  0  0  0  0
    2.0050   -2.1655    3.0203 C   0  0  0  0  0  0  0  0  0  0  0  0
    1.5859   -2.6689    4.2342 C   0  0  0  0  0  0  0  0  0  0  0  0
    1.8365   -1.9987    5.4341 C   0  0  0  0  0  0  0  0  0  0  0  0
    2.5114   -0.7956    5.4665 C   0  0  0  0  0  0  0  0  0  0  0  0
    4.2739    1.7867    4.8053 C   0  0  0  0  0  0  0  0  0  0  0  0
    5.7995    1.6791    4.5190 C   0  0  0  0  0  0  0  0  0  0  0  0
    6.1497    1.0905    3.5208 O   0  0  0  0  0  0  0  0  0  0  0  0
    6.7051    2.3120    5.4709 C   0  0  0  0  0  0  0  0  0  0  0  0
    6.2726    3.1195    6.5292 C   0  0  0  0  0  0  0  0  0  0  0  0
    7.1972    3.6923    7.3798 C   0  0  0  0  0  0  0  0  0  0  0  0
    8.5550    3.4680    7.1964 C   0  0  0  0  0  0  0  0  0  0  0  0
    8.9943    2.6719    6.1490 C   0  0  0  0  0  0  0  0  0  0  0  0
    8.0785    2.1005    5.2899 C   0  0  0  0  0  0  0  0  0  0  0  0
    3.2687    1.0150   -1.7302 H   0  0  0  0  0  0  0  0  0  0  0  0
    1.5547    1.6614   -1.6591 H   0  0  0  0  0  0  0  0  0  0  0  0
    2.8996   -1.4919    0.4823 H   0  0  0  0  0  0  0  0  0  0  0  0
    4.1524   -0.2718    0.1686 H   0  0  0  0  0  0  0  0  0  0  0  0
    4.2417    1.6904    2.0479 H   0  0  0  0  0  0  0  0  0  0  0  0
    1.7955   -2.6880    2.1016 H   0  0  0  0  0  0  0  0  0  0  0  0
    1.0475   -3.6026    4.2596 H   0  0  0  0  0  0  0  0  0  0  0  0
    1.4886   -2.4328    6.3578 H   0  0  0  0  0  0  0  0  0  0  0  0
    2.6924   -0.2864    6.3989 H   0  0  0  0  0  0  0  0  0  0  0  0
    3.9631    2.8196    4.6224 H   0  0  0  0  0  0  0  0  0  0  0  0
    4.0506    1.5151    5.8359 H   0  0  0  0  0  0  0  0  0  0  0  0
    5.2237    3.3192    6.6846 H   0  0  0  0  0  0  0  0  0  0  0  0
    6.8605    4.3188    8.1915 H   0  0  0  0  0  0  0  0  0  0  0  0
    9.2686    3.9179    7.8691 H   0  0  0  0  0  0  0  0  0  0  0  0
   10.0491    2.5003    6.0035 H   0  0  0  0  0  0  0  0  0  0  0  0
    8.4000    1.4786    4.4682 H   0  0  0  0  0  0  0  0  0  0  0  0
  1  2  1  0  0  0  0
  2  3  2  0  0  0  0
  2  4  1  0  0  0  0
  4  5  1  0  0  0  0
  5  6  4  0  0  0  0
  6  7  4  0  0  0  0
  7  8  1  0  0  0  0
  5  9  1  0  0  0  0
  8  9  4  0  0  0  0
  9 10  4  0  0  0  0
 10 11  4  0  0  0  0
 11 12  4  0  0  0  0
  8 13  4  0  0  0  0
 12 13  4  0  0  0  0
  7 14  1  0  0  0  0
 14 15  1  0  0  0  0
 15 16  2  0  0  0  0
 15 17  1  0  0  0  0
 17 18  4  0  0  0  0
 18 19  4  0  0  0  0
 19 20  4  0  0  0  0
 20 21  4  0  0  0  0
 17 22  4  0  0  0  0
 21 22  4  0  0  0  0
  3 23  1  0  0  0  0
  3 24  1  0  0  0  0
  4 25  1  0  0  0  0
  4 26  1  0  0  0  0
  6 27  1  0  0  0  0
 10 28  1  0  0  0  0
 11 29  1  0  0  0  0
 12 30  1  0  0  0  0
 13 31  1  0  0  0  0
 14 32  1  0  0  0  0
 14 33  1  0  0  0  0
 18 34  1  0  0  0  0
 19 35  1  0  0  0  0
 20 36  1  0  0  0  0
 21 37  1  0  0  0  0
 22 38  1  0  0  0  0
M  CHG  1   1   1
M  END
