28

C          1.17114        0.12773       -0.25880
C          0.60861       -1.24606       -0.58987
C          0.97435       -2.31973        0.43814
C          0.40420       -2.08988        1.83550
N         -1.06423       -2.13211        1.85272
C         -1.84477       -3.27916        1.89847
C         -3.14793       -2.86819        1.89336
N         -3.12200       -1.48806        1.86316
C         -1.85924       -1.05083        1.81118
C         -4.26870       -0.58141        1.79816
C         -4.44792        0.27414        3.06283
F         -3.28555        0.93176        3.34224
F         -5.39996        1.22320        2.88876
F         -4.07326        0.20812        0.71172
F         -5.38399       -1.31456        1.55601
H          0.72788        0.53646        0.65346
H          0.95597        0.82744       -1.07280
H          2.25693        0.08602       -0.12691
H         -0.47902       -1.18009       -0.70275
H          1.00379       -1.55497       -1.56521
H          0.62096       -3.28794        0.06298
H          2.06642       -2.39003        0.50989
H          0.76503       -2.87254        2.51356
H          0.73098       -1.13231        2.25364
H         -1.36452       -4.24304        1.91744
H         -4.09272       -3.38671        1.90028
H         -1.53127       -0.01755        1.74481
H         -4.71649       -0.33836        3.92771
