 xtb: 6.7.1 (edcfbbe)
          12202402053D

 27 28  0     0  0            999 V2000
    0.7720   -1.2213    0.2622 C   0  0  0  0  0  0  0  0  0  0  0  0
    0.6348   -0.0792   -0.6823 C   0  0  0  0  0  0  0  0  0  0  0  0
    0.3271    1.0419   -0.3852 O   0  0  0  0  0  0  0  0  0  0  0  0
    0.9771   -0.4069   -2.1579 C   0  0  0  0  0  0  0  0  0  0  0  0
    0.6164    0.7115   -2.9810 N   0  0  0  0  0  0  0  0  0  0  0  0
    1.0313    1.9599   -2.7605 C   0  0  0  0  0  0  0  0  0  0  0  0
    0.3743    2.8266   -3.5194 N   0  0  0  0  0  0  0  0  0  0  0  0
   -0.5427    2.1205   -4.2710 C   0  0  0  0  0  0  0  0  0  0  0  0
   -0.3973    0.7649   -3.9197 C   0  0  0  0  0  0  0  0  0  0  0  0
   -1.1868   -0.2170   -4.5047 C   0  0  0  0  0  0  0  0  0  0  0  0
   -2.1141    0.1995   -5.4381 C   0  0  0  0  0  0  0  0  0  0  0  0
   -2.2569    1.5455   -5.7869 C   0  0  0  0  0  0  0  0  0  0  0  0
   -1.4780    2.5294   -5.2139 C   0  0  0  0  0  0  0  0  0  0  0  0
    0.5538    4.2521   -3.5516 C   0  0  0  0  0  0  0  0  0  0  0  0
    0.0531   -1.1182    1.0719 H   0  0  0  0  0  0  0  0  0  0  0  0
    1.7650   -1.1749    0.7115 H   0  0  0  0  0  0  0  0  0  0  0  0
    0.6604   -2.1837   -0.2263 H   0  0  0  0  0  0  0  0  0  0  0  0
    2.0511   -0.6094   -2.2191 H   0  0  0  0  0  0  0  0  0  0  0  0
    0.4348   -1.2923   -2.4888 H   0  0  0  0  0  0  0  0  0  0  0  0
    1.8123    2.2279   -2.0744 H   0  0  0  0  0  0  0  0  0  0  0  0
   -1.0875   -1.2596   -4.2502 H   0  0  0  0  0  0  0  0  0  0  0  0
   -2.7471   -0.5327   -5.9132 H   0  0  0  0  0  0  0  0  0  0  0  0
   -2.9957    1.8184   -6.5231 H   0  0  0  0  0  0  0  0  0  0  0  0
   -1.5900    3.5660   -5.4854 H   0  0  0  0  0  0  0  0  0  0  0  0
   -0.3683    4.7495   -3.2472 H   0  0  0  0  0  0  0  0  0  0  0  0
    1.3522    4.5383   -2.8710 H   0  0  0  0  0  0  0  0  0  0  0  0
    0.8084    4.5742   -4.5622 H   0  0  0  0  0  0  0  0  0  0  0  0
  1  2  1  0  0  0  0
  2  3  2  0  0  0  0
  2  4  1  0  0  0  0
  4  5  1  0  0  0  0
  5  6  4  0  0  0  0
  6  7  4  0  0  0  0
  7  8  1  0  0  0  0
  5  9  1  0  0  0  0
  8  9  4  0  0  0  0
  9 10  4  0  0  0  0
 10 11  4  0  0  0  0
 11 12  4  0  0  0  0
  8 13  4  0  0  0  0
 12 13  4  0  0  0  0
  7 14  1  0  0  0  0
  1 15  1  0  0  0  0
  1 16  1  0  0  0  0
  1 17  1  0  0  0  0
  4 18  1  0  0  0  0
  4 19  1  0  0  0  0
  6 20  1  0  0  0  0
 10 21  1  0  0  0  0
 11 22  1  0  0  0  0
 12 23  1  0  0  0  0
 13 24  1  0  0  0  0
 14 25  1  0  0  0  0
 14 26  1  0  0  0  0
 14 27  1  0  0  0  0
M  CHG  1   1   1
M  END
