 xtb: 6.7.1 (edcfbbe)
          12202402053D

 35 34  0     0  0            999 V2000
    0.3111    1.1465    1.2818 C   0  0  0  0  0  0  0  0  0  0  0  0
    1.7951    1.0182    0.9826 C   0  0  0  0  0  0  0  0  0  0  0  0
    2.2229    2.0224    0.0367 O   0  0  0  0  0  0  0  0  0  0  0  0
    2.0633    1.7727   -1.2413 C   0  0  0  0  0  0  0  0  0  0  0  0
    1.6270    0.7652   -1.7289 O   0  0  0  0  0  0  0  0  0  0  0  0
    2.5389    2.9985   -2.0446 C   0  0  0  0  0  0  0  0  0  0  0  0
    2.4969    2.8421   -3.5139 N   0  0  0  0  0  0  0  0  0  0  0  0
    1.0879    2.5784   -3.9746 C   0  0  0  0  0  0  0  0  0  0  0  0
    0.0735    3.6843   -3.7271 C   0  0  0  0  0  0  0  0  0  0  0  0
    2.9557    4.1141   -4.1601 C   0  0  0  0  0  0  0  0  0  0  0  0
    4.4331    4.4554   -4.0547 C   0  0  0  0  0  0  0  0  0  0  0  0
    3.3207    1.6679   -3.9734 C   0  0  0  0  0  0  0  0  0  0  0  0
    4.5750    1.3439   -3.1741 C   0  0  0  0  0  0  0  0  0  0  0  0
    0.0794    2.1466    1.6391 H   0  0  0  0  0  0  0  0  0  0  0  0
    0.0410    0.4296    2.0507 H   0  0  0  0  0  0  0  0  0  0  0  0
   -0.2779    0.9371    0.3914 H   0  0  0  0  0  0  0  0  0  0  0  0
    2.3982    1.2067    1.8712 H   0  0  0  0  0  0  0  0  0  0  0  0
    2.0229    0.0306    0.5724 H   0  0  0  0  0  0  0  0  0  0  0  0
    1.9102    3.8418   -1.7516 H   0  0  0  0  0  0  0  0  0  0  0  0
    3.5570    3.2243   -1.7261 H   0  0  0  0  0  0  0  0  0  0  0  0
    1.1384    2.3745   -5.0461 H   0  0  0  0  0  0  0  0  0  0  0  0
    0.7518    1.6720   -3.4691 H   0  0  0  0  0  0  0  0  0  0  0  0
    0.2858    4.5892   -4.2887 H   0  0  0  0  0  0  0  0  0  0  0  0
   -0.8921    3.3153   -4.0650 H   0  0  0  0  0  0  0  0  0  0  0  0
   -0.0314    3.9298   -2.6742 H   0  0  0  0  0  0  0  0  0  0  0  0
    2.6895    4.0468   -5.2172 H   0  0  0  0  0  0  0  0  0  0  0  0
    2.3818    4.9272   -3.7141 H   0  0  0  0  0  0  0  0  0  0  0  0
    5.0601    3.7535   -4.5949 H   0  0  0  0  0  0  0  0  0  0  0  0
    4.5730    5.4315   -4.5142 H   0  0  0  0  0  0  0  0  0  0  0  0
    4.7733    4.5344   -3.0261 H   0  0  0  0  0  0  0  0  0  0  0  0
    2.6801    0.7859   -3.9312 H   0  0  0  0  0  0  0  0  0  0  0  0
    3.5800    1.8545   -5.0165 H   0  0  0  0  0  0  0  0  0  0  0  0
    4.3333    0.9611   -2.1870 H   0  0  0  0  0  0  0  0  0  0  0  0
    5.0953    0.5500   -3.7054 H   0  0  0  0  0  0  0  0  0  0  0  0
    5.2623    2.1764   -3.0754 H   0  0  0  0  0  0  0  0  0  0  0  0
  1  2  1  0  0  0  0
  2  3  1  0  0  0  0
  3  4  4  0  0  0  0
  4  5  2  0  0  0  0
  4  6  1  0  0  0  0
  6  7  1  0  0  0  0
  7  8  1  0  0  0  0
  8  9  1  0  0  0  0
  7 10  1  0  0  0  0
 10 11  1  0  0  0  0
  7 12  1  0  0  0  0
 12 13  1  0  0  0  0
  1 14  1  0  0  0  0
  1 15  1  0  0  0  0
  1 16  1  0  0  0  0
  2 17  1  0  0  0  0
  2 18  1  0  0  0  0
  6 19  1  0  0  0  0
  6 20  1  0  0  0  0
  8 21  1  0  0  0  0
  8 22  1  0  0  0  0
  9 23  1  0  0  0  0
  9 24  1  0  0  0  0
  9 25  1  0  0  0  0
 10 26  1  0  0  0  0
 10 27  1  0  0  0  0
 11 28  1  0  0  0  0
 11 29  1  0  0  0  0
 11 30  1  0  0  0  0
 12 31  1  0  0  0  0
 12 32  1  0  0  0  0
 13 33  1  0  0  0  0
 13 34  1  0  0  0  0
 13 35  1  0  0  0  0
M  CHG  1   1   1
M  END
