27

C          1.54262        0.33127        0.50601
C          0.34339        1.25914        0.51292
N          0.60872        2.45513       -0.32587
C          0.70086        3.67508        0.25064
C          0.90053        4.81465       -0.52481
C          1.01774        4.71788       -1.91533
C          0.92770        3.43926       -2.47548
C          0.71270        2.32651       -1.66797
C          1.21291        5.91338       -2.75794
C          0.48393        6.09500       -3.94221
C          0.69587        7.23533       -4.70257
N          1.57342        8.19993       -4.36916
C          2.27078        8.02245       -3.23124
C          2.12849        6.91538       -2.40729
H          1.70379       -0.10357       -0.48559
H          1.38598       -0.49375        1.20778
H          2.45615        0.86179        0.79142
H         -0.55111        0.77298        0.10929
H          0.12290        1.58996        1.53310
H          0.60048        3.73744        1.33075
H          0.94287        5.78541       -0.03183
H          1.02913        3.29699       -3.55066
H          0.62426        1.32870       -2.08864
H         -0.25544        5.37527       -4.27822
H          0.14663        7.40779       -5.62454
H          2.97170        8.81766       -2.99063
H          2.74175        6.84752       -1.51476
