 xtb: 6.7.1 (edcfbbe)
          12202402053D

 18 18  0     0  0            999 V2000
    1.1966    0.0030   -0.4165 N   0  0  0  0  0  0  0  0  0  0  0  0
    0.4142   -0.9334   -0.9729 N   0  0  0  0  0  0  0  0  0  0  0  0
    0.3632   -2.2503   -0.6643 C   0  0  0  0  0  0  0  0  0  0  0  0
   -0.4932   -2.7969   -1.5912 C   0  0  0  0  0  0  0  0  0  0  0  0
   -0.8817   -1.7826   -2.3807 N   0  0  0  0  0  0  0  0  0  0  0  0
   -0.3379   -0.6570   -1.9970 N   0  0  0  0  0  0  0  0  0  0  0  0
   -1.8261   -1.8115   -3.4720 C   0  0  0  0  0  0  0  0  0  0  0  0
   -3.2359   -1.9116   -2.9448 C   0  0  0  0  0  0  0  0  0  0  0  0
   -4.1690   -1.0166   -3.2015 C   0  0  0  0  0  0  0  0  0  0  0  0
    0.9789    0.9440   -0.7213 H   0  0  0  0  0  0  0  0  0  0  0  0
    1.3795   -0.1048    0.5726 H   0  0  0  0  0  0  0  0  0  0  0  0
    0.9098   -2.6939    0.1415 H   0  0  0  0  0  0  0  0  0  0  0  0
   -0.8189   -3.8084   -1.7237 H   0  0  0  0  0  0  0  0  0  0  0  0
   -1.6954   -0.8896   -4.0414 H   0  0  0  0  0  0  0  0  0  0  0  0
   -1.5983   -2.6746   -4.1052 H   0  0  0  0  0  0  0  0  0  0  0  0
   -3.4445   -2.7854   -2.3430 H   0  0  0  0  0  0  0  0  0  0  0  0
   -5.1714   -1.1292   -2.8286 H   0  0  0  0  0  0  0  0  0  0  0  0
   -3.9779   -0.1466   -3.8069 H   0  0  0  0  0  0  0  0  0  0  0  0
  1  2  1  0  0  0  0
  2  3  4  0  0  0  0
  3  4  4  0  0  0  0
  4  5  4  0  0  0  0
  2  6  4  0  0  0  0
  5  6  4  0  0  0  0
  5  7  1  0  0  0  0
  7  8  1  0  0  0  0
  8  9  2  0  0  0  0
  1 10  1  0  0  0  0
  1 11  1  0  0  0  0
  3 12  1  0  0  0  0
  4 13  1  0  0  0  0
  7 14  1  0  0  0  0
  7 15  1  0  0  0  0
  8 16  1  0  0  0  0
  9 17  1  0  0  0  0
  9 18  1  0  0  0  0
M  CHG  1   1   1
M  END
