 xtb: 6.7.1 (edcfbbe)
          12202402053D

 56 55  0     0  0            999 V2000
    1.5852    0.8069   -0.1322 C   0  0  0  0  0  0  0  0  0  0  0  0
    1.5148    0.6564   -1.6471 C   0  0  0  0  0  0  0  0  0  0  0  0
    1.6731   -0.7899   -2.1189 C   0  0  0  0  0  0  0  0  0  0  0  0
    0.5889   -1.7527   -1.6296 C   0  0  0  0  0  0  0  0  0  0  0  0
   -0.8409   -1.3707   -2.0179 C   0  0  0  0  0  0  0  0  0  0  0  0
   -1.0884   -1.2311   -3.5211 C   0  0  0  0  0  0  0  0  0  0  0  0
   -0.8171   -2.4928   -4.3433 C   0  0  0  0  0  0  0  0  0  0  0  0
   -1.6312   -3.7223   -3.9334 C   0  0  0  0  0  0  0  0  0  0  0  0
   -3.1492   -3.5301   -3.9642 C   0  0  0  0  0  0  0  0  0  0  0  0
   -3.7242   -3.1132   -5.3199 C   0  0  0  0  0  0  0  0  0  0  0  0
   -3.4065   -4.0575   -6.4867 C   0  0  0  0  0  0  0  0  0  0  0  0
   -3.7642   -5.5358   -6.3088 C   0  0  0  0  0  0  0  0  0  0  0  0
   -5.1640   -5.9674   -6.6330 N   0  0  0  0  0  0  0  0  0  0  0  0
   -5.5223   -5.6449   -8.0350 C   0  0  0  0  0  0  0  0  0  0  0  0
   -4.6067   -6.2248   -9.1214 C   0  0  0  0  0  0  0  0  0  0  0  0
   -3.6942   -6.9767   -8.9348 O   0  0  0  0  0  0  0  0  0  0  0  0
   -4.9891   -5.7626  -10.2936 O   0  0  0  0  0  0  0  0  0  0  0  0
   -5.2706   -7.4567   -6.4534 C   0  0  0  0  0  0  0  0  0  0  0  0
   -5.0834   -7.9695   -5.0345 C   0  0  0  0  0  0  0  0  0  0  0  0
   -6.1434   -5.2960   -5.7579 C   0  0  0  0  0  0  0  0  0  0  0  0
    0.7378    0.3277    0.3516 H   0  0  0  0  0  0  0  0  0  0  0  0
    1.5781    1.8594    0.1413 H   0  0  0  0  0  0  0  0  0  0  0  0
    2.4996    0.3606    0.2522 H   0  0  0  0  0  0  0  0  0  0  0  0
    0.5707    1.0667   -2.0102 H   0  0  0  0  0  0  0  0  0  0  0  0
    2.3174    1.2462   -2.0962 H   0  0  0  0  0  0  0  0  0  0  0  0
    1.7029   -0.8004   -3.2108 H   0  0  0  0  0  0  0  0  0  0  0  0
    2.6374   -1.1651   -1.7674 H   0  0  0  0  0  0  0  0  0  0  0  0
    0.8172   -2.7487   -2.0165 H   0  0  0  0  0  0  0  0  0  0  0  0
    0.6365   -1.8172   -0.5412 H   0  0  0  0  0  0  0  0  0  0  0  0
   -1.5197   -2.1201   -1.6037 H   0  0  0  0  0  0  0  0  0  0  0  0
   -1.0953   -0.4200   -1.5465 H   0  0  0  0  0  0  0  0  0  0  0  0
   -2.1230   -0.9122   -3.6705 H   0  0  0  0  0  0  0  0  0  0  0  0
   -0.4536   -0.4347   -3.9123 H   0  0  0  0  0  0  0  0  0  0  0  0
   -1.0035   -2.2625   -5.3954 H   0  0  0  0  0  0  0  0  0  0  0  0
    0.2395   -2.7504   -4.2593 H   0  0  0  0  0  0  0  0  0  0  0  0
   -1.3485   -4.5550   -4.5831 H   0  0  0  0  0  0  0  0  0  0  0  0
   -1.3530   -4.0058   -2.9176 H   0  0  0  0  0  0  0  0  0  0  0  0
   -3.6230   -4.4533   -3.6168 H   0  0  0  0  0  0  0  0  0  0  0  0
   -3.4190   -2.7573   -3.2440 H   0  0  0  0  0  0  0  0  0  0  0  0
   -4.7995   -2.9676   -5.2070 H   0  0  0  0  0  0  0  0  0  0  0  0
   -3.3079   -2.1406   -5.5837 H   0  0  0  0  0  0  0  0  0  0  0  0
   -3.8394   -3.6493   -7.4004 H   0  0  0  0  0  0  0  0  0  0  0  0
   -2.3252   -4.0369   -6.6312 H   0  0  0  0  0  0  0  0  0  0  0  0
   -3.1089   -6.1324   -6.9445 H   0  0  0  0  0  0  0  0  0  0  0  0
   -3.5753   -5.8104   -5.2726 H   0  0  0  0  0  0  0  0  0  0  0  0
   -6.5328   -6.0089   -8.2432 H   0  0  0  0  0  0  0  0  0  0  0  0
   -5.5381   -4.5619   -8.1764 H   0  0  0  0  0  0  0  0  0  0  0  0
   -4.4490   -6.1077  -11.0255 H   0  0  0  0  0  0  0  0  0  0  0  0
   -6.2623   -7.7515   -6.8037 H   0  0  0  0  0  0  0  0  0  0  0  0
   -4.5246   -7.9181   -7.1015 H   0  0  0  0  0  0  0  0  0  0  0  0
   -5.8290   -7.5814   -4.3470 H   0  0  0  0  0  0  0  0  0  0  0  0
   -5.2010   -9.0501   -5.0634 H   0  0  0  0  0  0  0  0  0  0  0  0
   -4.0910   -7.7679   -4.6436 H   0  0  0  0  0  0  0  0  0  0  0  0
   -5.8176   -5.3473   -4.7225 H   0  0  0  0  0  0  0  0  0  0  0  0
   -6.2446   -4.2506   -6.0376 H   0  0  0  0  0  0  0  0  0  0  0  0
   -7.1172   -5.7748   -5.8491 H   0  0  0  0  0  0  0  0  0  0  0  0
  1  2  1  0  0  0  0
  2  3  1  0  0  0  0
  3  4  1  0  0  0  0
  4  5  1  0  0  0  0
  5  6  1  0  0  0  0
  6  7  1  0  0  0  0
  7  8  1  0  0  0  0
  8  9  1  0  0  0  0
  9 10  1  0  0  0  0
 10 11  1  0  0  0  0
 11 12  1  0  0  0  0
 12 13  1  0  0  0  0
 13 14  1  0  0  0  0
 14 15  1  0  0  0  0
 15 16  2  0  0  0  0
 15 17  1  0  0  0  0
 13 18  1  0  0  0  0
 18 19  1  0  0  0  0
 13 20  1  0  0  0  0
  1 21  1  0  0  0  0
  1 22  1  0  0  0  0
  1 23  1  0  0  0  0
  2 24  1  0  0  0  0
  2 25  1  0  0  0  0
  3 26  1  0  0  0  0
  3 27  1  0  0  0  0
  4 28  1  0  0  0  0
  4 29  1  0  0  0  0
  5 30  1  0  0  0  0
  5 31  1  0  0  0  0
  6 32  1  0  0  0  0
  6 33  1  0  0  0  0
  7 34  1  0  0  0  0
  7 35  1  0  0  0  0
  8 36  1  0  0  0  0
  8 37  1  0  0  0  0
  9 38  1  0  0  0  0
  9 39  1  0  0  0  0
 10 40  1  0  0  0  0
 10 41  1  0  0  0  0
 11 42  1  0  0  0  0
 11 43  1  0  0  0  0
 12 44  1  0  0  0  0
 12 45  1  0  0  0  0
 14 46  1  0  0  0  0
 14 47  1  0  0  0  0
 17 48  1  0  0  0  0
 18 49  1  0  0  0  0
 18 50  1  0  0  0  0
 19 51  1  0  0  0  0
 19 52  1  0  0  0  0
 19 53  1  0  0  0  0
 20 54  1  0  0  0  0
 20 55  1  0  0  0  0
 20 56  1  0  0  0  0
M  CHG  1   1   1
M  END
