 xtb: 6.7.1 (edcfbbe)
          12202402053D

 26 27  0     0  0            999 V2000
   -0.3370    1.0534    0.8594 C   0  0  0  0  0  0  0  0  0  0  0  0
    0.8942    1.2649   -0.0181 C   0  0  0  0  0  0  0  0  0  0  0  0
    1.3241    0.0021   -0.6848 C   0  0  0  0  0  0  0  0  0  0  0  0
    0.5778   -1.0890   -0.7553 C   0  0  0  0  0  0  0  0  0  0  0  0
   -0.7929   -1.1827   -0.1368 C   0  0  0  0  0  0  0  0  0  0  0  0
   -1.3754    0.2150    0.1208 C   0  0  0  0  0  0  0  0  0  0  0  0
   -1.6991   -1.9379   -1.0038 N   0  0  0  0  0  0  0  0  0  0  0  0
   -2.5454   -2.8333   -0.4863 C   0  0  0  0  0  0  0  0  0  0  0  0
   -3.4270   -3.5299   -1.2871 C   0  0  0  0  0  0  0  0  0  0  0  0
   -3.4355   -3.2920   -2.6553 C   0  0  0  0  0  0  0  0  0  0  0  0
   -2.5530   -2.3522   -3.1728 C   0  0  0  0  0  0  0  0  0  0  0  0
   -1.6958   -1.6908   -2.3188 C   0  0  0  0  0  0  0  0  0  0  0  0
   -0.7712    2.0147    1.1315 H   0  0  0  0  0  0  0  0  0  0  0  0
   -0.0478    0.5439    1.7798 H   0  0  0  0  0  0  0  0  0  0  0  0
    0.6856    2.0095   -0.7928 H   0  0  0  0  0  0  0  0  0  0  0  0
    1.7189    1.6575    0.5782 H   0  0  0  0  0  0  0  0  0  0  0  0
    2.3060    0.0069   -1.1340 H   0  0  0  0  0  0  0  0  0  0  0  0
    0.9403   -1.9904   -1.2283 H   0  0  0  0  0  0  0  0  0  0  0  0
   -0.7264   -1.7251    0.8140 H   0  0  0  0  0  0  0  0  0  0  0  0
   -2.2918    0.1352    0.7080 H   0  0  0  0  0  0  0  0  0  0  0  0
   -1.6167    0.6928   -0.8311 H   0  0  0  0  0  0  0  0  0  0  0  0
   -2.5079   -2.9928    0.5814 H   0  0  0  0  0  0  0  0  0  0  0  0
   -4.0940   -4.2508   -0.8426 H   0  0  0  0  0  0  0  0  0  0  0  0
   -4.1121   -3.8271   -3.3026 H   0  0  0  0  0  0  0  0  0  0  0  0
   -2.5264   -2.1353   -4.2286 H   0  0  0  0  0  0  0  0  0  0  0  0
   -0.9842   -0.9588   -2.6733 H   0  0  0  0  0  0  0  0  0  0  0  0
  1  2  1  0  0  0  0
  2  3  1  0  0  0  0
  3  4  2  0  0  0  0
  4  5  1  0  0  0  0
  1  6  1  0  0  0  0
  5  6  1  0  0  0  0
  5  7  1  0  0  0  0
  7  8  4  0  0  0  0
  8  9  4  0  0  0  0
  9 10  4  0  0  0  0
 10 11  4  0  0  0  0
  7 12  4  0  0  0  0
 11 12  4  0  0  0  0
  1 13  1  0  0  0  0
  1 14  1  0  0  0  0
  2 15  1  0  0  0  0
  2 16  1  0  0  0  0
  3 17  1  0  0  0  0
  4 18  1  0  0  0  0
  5 19  1  0  0  0  0
  6 20  1  0  0  0  0
  6 21  1  0  0  0  0
  8 22  1  0  0  0  0
  9 23  1  0  0  0  0
 10 24  1  0  0  0  0
 11 25  1  0  0  0  0
 12 26  1  0  0  0  0
M  CHG  1   1   1
M  END
