123

C          2.18950       -1.15956        0.66179
C          0.98767       -1.75243        0.72228
C         -0.28284       -1.11017        0.24736
N         -0.88297       -1.70865       -1.04173
C         -1.12540       -3.24849       -0.90673
C         -1.87822       -3.73347        0.35365
O         -3.30721       -3.75578        0.18740
C         -4.01784       -2.74263        0.74691
O         -3.50646       -1.76565        1.27865
C         -5.50211       -2.92329        0.54194
C         -5.92572       -2.91137       -0.93081
C         -5.59332       -4.17093       -1.74737
C         -6.11650       -5.48706       -1.16201
C         -7.63854       -5.64273       -1.24823
C         -8.14678       -6.08139       -2.62784
C         -7.71253       -7.48731       -3.06633
C         -8.09597       -8.62080       -2.10708
C         -9.60140       -8.78905       -1.87170
C        -10.41907       -9.12768       -3.12354
C        -10.00662      -10.41847       -3.84024
C        -10.12307      -11.69476       -2.99986
C        -11.53778      -12.03083       -2.51532
C        -12.58392      -12.21166       -3.61864
C        -12.24948      -13.33148       -4.59230
C         -2.20671       -1.01285       -1.48238
C         -2.46812        0.43623       -1.03057
O         -2.24222        1.34605       -2.11929
C         -1.01640        1.90274       -2.24702
O         -0.10232        1.74460       -1.45071
C         -0.90741        2.70605       -3.51865
C         -1.38718        1.94847       -4.76317
C         -2.90887        1.80542       -4.93648
C         -3.70830        3.10417       -4.80067
C         -3.41352        4.12936       -5.89869
C         -3.98033        3.75315       -7.27274
C         -5.51137        3.67851       -7.33842
C         -6.23927        4.96784       -6.93938
C         -5.88078        6.19652       -7.78318
C         -6.17665        6.05729       -9.28059
C         -7.64594        5.79124       -9.62507
C         -8.62043        6.89112       -9.19077
C         -8.36873        8.26755       -9.81623
C         -8.39633        8.30626      -11.34656
C         -9.72568        7.86293      -11.93797
C          0.13931       -1.52211       -2.17976
H          2.32464       -0.16357        0.24386
H          3.07883       -1.64944        1.05129
H          0.92237       -2.72958        1.19288
H         -1.04617       -1.15487        1.02743
H         -0.08094       -0.05786        0.04907
H         -1.65190       -3.55639       -1.81815
H         -0.13064       -3.70863       -0.91176
H         -1.60447       -4.78485        0.50326
H         -1.58211       -3.22506        1.27445
H         -5.83560       -3.81382        1.08004
H         -5.98790       -2.07386        1.03945
H         -7.00733       -2.73890       -0.97579
H         -5.46306       -2.05157       -1.43207
H         -5.98415       -4.03899       -2.76347
H         -4.50755       -4.24991       -1.86715
H         -5.62145       -6.31825       -1.67446
H         -5.80915       -5.57830       -0.11563
H         -7.96305       -6.36682       -0.49312
H         -8.12907       -4.70162       -0.97668
H         -9.24194       -6.02924       -2.62725
H         -7.81560       -5.36248       -3.38643
H         -8.13463       -7.68833       -4.05794
H         -6.62594       -7.50723       -3.20755
H         -7.67739       -9.55876       -2.48970
H         -7.60562       -8.46425       -1.13934
H         -9.75123       -9.56987       -1.11693
H        -10.00759       -7.87300       -1.42702
H        -11.47730       -9.18712       -2.84361
H        -10.35197       -8.29767       -3.83665
H        -10.61160      -10.52185       -4.74836
H         -8.97231      -10.32686       -4.19163
H         -9.73320      -12.53446       -3.58728
H         -9.46433      -11.62151       -2.12657
H        -11.48789      -12.95350       -1.92332
H        -11.88477      -11.25146       -1.82681
H        -13.54765      -12.43767       -3.14652
H        -12.72402      -11.27599       -4.17068
H        -12.08817      -14.27616       -4.06344
H        -13.07349      -13.47483       -5.29849
H        -11.35197      -13.10300       -5.17459
H         -2.25402       -1.08694       -2.57611
H         -3.01555       -1.63534       -1.12195
H         -3.54054        0.52414       -0.81707
H         -1.96926        0.75988       -0.11545
H         -1.40526        3.66884       -3.38147
H          0.15955        2.92420       -3.65461
H         -0.98320        2.45404       -5.64817
H         -0.94985        0.94148       -4.76374
H         -3.10347        1.34828       -5.91360
H         -3.29932        1.08300       -4.21223
H         -4.77605        2.86068       -4.78782
H         -3.51372        3.56057       -3.82428
H         -3.81231        5.10163       -5.58937
H         -2.33190        4.27698       -5.99212
H         -3.62075        4.48128       -8.00892
H         -3.56997        2.78824       -7.59162
H         -5.80318        3.39211       -8.35550
H         -5.86870        2.86423       -6.69765
H         -7.31965        4.78974       -6.98863
H         -6.03450        5.19444       -5.88649
H         -6.41576        7.06498       -7.38199
H         -4.81664        6.42896       -7.65848
H         -5.83795        6.96666       -9.79016
H         -5.56888        5.24650       -9.69905
H         -7.72812        5.63468      -10.70672
H         -7.96400        4.84523       -9.17172
H         -9.64019        6.56618       -9.42847
H         -8.59614        6.99467       -8.09957
H         -9.12506        8.96345       -9.43193
H         -7.40271        8.65587       -9.47264
H         -8.19671        9.33500      -11.66972
H         -7.58875        7.69234      -11.76000
H        -10.55261        8.45177      -11.52871
H         -9.71809        7.99760      -13.02420
H         -9.92178        6.80535      -11.73808
H          0.36257       -0.46345       -2.29293
H          1.04970       -2.07910       -1.94351
H         -0.29548       -1.91981       -3.10231
