31

C          1.04982        0.35666        0.10612
C          0.68480        0.67747       -1.33503
C          1.14732       -0.38622       -2.33355
C          0.58214       -1.79265       -2.11104
C         -0.94601       -1.90074       -2.12016
C         -1.60551       -1.48412       -3.43275
N         -1.17307       -2.31480       -4.56164
C         -0.43394       -1.88884       -5.65472
C         -0.25275       -2.97869       -6.45838
N         -0.89465       -4.04001       -5.84291
C         -1.45772       -3.61924       -4.70060
C         -0.95774       -5.41133       -6.33099
H          0.51231       -0.52408        0.46956
H          0.78619        1.19682        0.75655
H          2.12417        0.17370        0.20814
H         -0.39682        0.83144       -1.41378
H          1.15279        1.63122       -1.60767
H          0.89886       -0.04675       -3.34554
H          2.24248       -0.44867       -2.29911
H          0.99595       -2.45703       -2.87953
H          0.95146       -2.18333       -1.15529
H         -1.21189       -2.94283       -1.90390
H         -1.36747       -1.30411       -1.30359
H         -2.69328       -1.59389       -3.34994
H         -1.40605       -0.43206       -3.66157
H         -0.12551       -0.85913       -5.71581
H          0.25305       -3.13741       -7.39554
H         -2.03232       -4.22619       -4.01031
H         -0.35884       -6.04648       -5.67295
H         -1.99861       -5.74557       -6.32202
H         -0.56775       -5.46907       -7.35056
