 xtb: 6.7.1 (edcfbbe)
          12202402063D

 86 85  0     0  0            999 V2000
    1.3357   -0.3709   -1.4434 C   0  0  0  0  0  0  0  0  0  0  0  0
    1.2769    1.0538   -0.9044 C   0  0  0  0  0  0  0  0  0  0  0  0
    1.8698    2.0919   -1.8594 C   0  0  0  0  0  0  0  0  0  0  0  0
    1.1732    2.1938   -3.2180 C   0  0  0  0  0  0  0  0  0  0  0  0
   -0.2888    2.6230   -3.1031 C   0  0  0  0  0  0  0  0  0  0  0  0
   -0.9250    2.9675   -4.4508 C   0  0  0  0  0  0  0  0  0  0  0  0
   -1.0021    1.8038   -5.4444 C   0  0  0  0  0  0  0  0  0  0  0  0
   -1.8104    0.5527   -5.0742 C   0  0  0  0  0  0  0  0  0  0  0  0
   -3.3077    0.6358   -5.0444 N   0  0  0  0  0  0  0  0  0  0  0  0
   -3.8213    1.5910   -6.0867 C   0  0  0  0  0  0  0  0  0  0  0  0
   -3.4161    1.3103   -7.5427 C   0  0  0  0  0  0  0  0  0  0  0  0
   -4.6112    0.9869   -8.4487 C   0  0  0  0  0  0  0  0  0  0  0  0
   -5.5727    2.1585   -8.6640 C   0  0  0  0  0  0  0  0  0  0  0  0
   -4.9545    3.3935   -9.3235 C   0  0  0  0  0  0  0  0  0  0  0  0
   -4.3134    3.1474  -10.6913 C   0  0  0  0  0  0  0  0  0  0  0  0
   -5.2615    2.5885  -11.7539 C   0  0  0  0  0  0  0  0  0  0  0  0
   -6.4208    3.5242  -12.0757 C   0  0  0  0  0  0  0  0  0  0  0  0
   -3.9293   -0.6954   -5.3593 C   0  0  0  0  0  0  0  0  0  0  0  0
   -3.3198   -1.9756   -4.7850 C   0  0  0  0  0  0  0  0  0  0  0  0
   -3.9307   -3.2035   -5.4747 C   0  0  0  0  0  0  0  0  0  0  0  0
   -5.4186   -3.3951   -5.1851 C   0  0  0  0  0  0  0  0  0  0  0  0
   -5.9803   -4.6756   -5.8081 C   0  0  0  0  0  0  0  0  0  0  0  0
   -5.4082   -5.9811   -5.2509 C   0  0  0  0  0  0  0  0  0  0  0  0
   -5.5879   -6.1772   -3.7443 C   0  0  0  0  0  0  0  0  0  0  0  0
   -7.0486   -6.1965   -3.3094 C   0  0  0  0  0  0  0  0  0  0  0  0
   -3.7907    1.1809   -3.7249 C   0  0  0  0  0  0  0  0  0  0  0  0
   -4.0012    0.2448   -2.5303 C   0  0  0  0  0  0  0  0  0  0  0  0
   -2.7535   -0.2395   -1.7998 C   0  0  0  0  0  0  0  0  0  0  0  0
    0.7158   -0.4894   -2.3300 H   0  0  0  0  0  0  0  0  0  0  0  0
    0.9849   -1.0727   -0.6907 H   0  0  0  0  0  0  0  0  0  0  0  0
    2.3578   -0.6336   -1.7044 H   0  0  0  0  0  0  0  0  0  0  0  0
    0.2448    1.3150   -0.6613 H   0  0  0  0  0  0  0  0  0  0  0  0
    1.8431    1.0953    0.0275 H   0  0  0  0  0  0  0  0  0  0  0  0
    1.8386    3.0692   -1.3731 H   0  0  0  0  0  0  0  0  0  0  0  0
    2.9190    1.8449   -2.0323 H   0  0  0  0  0  0  0  0  0  0  0  0
    1.7097    2.9297   -3.8208 H   0  0  0  0  0  0  0  0  0  0  0  0
    1.2477    1.2328   -3.7289 H   0  0  0  0  0  0  0  0  0  0  0  0
   -0.8579    1.8371   -2.6074 H   0  0  0  0  0  0  0  0  0  0  0  0
   -0.3402    3.5110   -2.4697 H   0  0  0  0  0  0  0  0  0  0  0  0
   -1.9100    3.4132   -4.2884 H   0  0  0  0  0  0  0  0  0  0  0  0
   -0.3150    3.7400   -4.9238 H   0  0  0  0  0  0  0  0  0  0  0  0
   -1.3245    2.1918   -6.4085 H   0  0  0  0  0  0  0  0  0  0  0  0
    0.0168    1.4390   -5.5902 H   0  0  0  0  0  0  0  0  0  0  0  0
   -1.5504   -0.2033   -5.8165 H   0  0  0  0  0  0  0  0  0  0  0  0
   -1.4881    0.1947   -4.0984 H   0  0  0  0  0  0  0  0  0  0  0  0
   -4.9111    1.5601   -6.0259 H   0  0  0  0  0  0  0  0  0  0  0  0
   -3.5030    2.5903   -5.7913 H   0  0  0  0  0  0  0  0  0  0  0  0
   -2.9177    2.1880   -7.9537 H   0  0  0  0  0  0  0  0  0  0  0  0
   -2.7009    0.4901   -7.6036 H   0  0  0  0  0  0  0  0  0  0  0  0
   -4.2240    0.6694   -9.4168 H   0  0  0  0  0  0  0  0  0  0  0  0
   -5.1782    0.1474   -8.0374 H   0  0  0  0  0  0  0  0  0  0  0  0
   -6.3954    1.8019   -9.2842 H   0  0  0  0  0  0  0  0  0  0  0  0
   -6.0073    2.4656   -7.7086 H   0  0  0  0  0  0  0  0  0  0  0  0
   -5.7417    4.1402   -9.4326 H   0  0  0  0  0  0  0  0  0  0  0  0
   -4.2016    3.8285   -8.6607 H   0  0  0  0  0  0  0  0  0  0  0  0
   -3.9170    4.1004  -11.0490 H   0  0  0  0  0  0  0  0  0  0  0  0
   -3.4644    2.4676  -10.5843 H   0  0  0  0  0  0  0  0  0  0  0  0
   -4.6821    2.4214  -12.6647 H   0  0  0  0  0  0  0  0  0  0  0  0
   -5.6520    1.6189  -11.4377 H   0  0  0  0  0  0  0  0  0  0  0  0
   -6.0491    4.5084  -12.3526 H   0  0  0  0  0  0  0  0  0  0  0  0
   -6.9984    3.1312  -12.9086 H   0  0  0  0  0  0  0  0  0  0  0  0
   -7.0902    3.6344  -11.2257 H   0  0  0  0  0  0  0  0  0  0  0  0
   -4.9749   -0.6247   -5.0567 H   0  0  0  0  0  0  0  0  0  0  0  0
   -3.9034   -0.8047   -6.4436 H   0  0  0  0  0  0  0  0  0  0  0  0
   -2.2437   -2.0050   -4.9540 H   0  0  0  0  0  0  0  0  0  0  0  0
   -3.4951   -2.0692   -3.7164 H   0  0  0  0  0  0  0  0  0  0  0  0
   -3.7760   -3.1383   -6.5542 H   0  0  0  0  0  0  0  0  0  0  0  0
   -3.3892   -4.0796   -5.1189 H   0  0  0  0  0  0  0  0  0  0  0  0
   -5.5796   -3.4134   -4.1061 H   0  0  0  0  0  0  0  0  0  0  0  0
   -5.9876   -2.5556   -5.5925 H   0  0  0  0  0  0  0  0  0  0  0  0
   -7.0619   -4.6766   -5.6683 H   0  0  0  0  0  0  0  0  0  0  0  0
   -5.7934   -4.6519   -6.8846 H   0  0  0  0  0  0  0  0  0  0  0  0
   -5.9050   -6.8047   -5.7677 H   0  0  0  0  0  0  0  0  0  0  0  0
   -4.3449   -6.0493   -5.4907 H   0  0  0  0  0  0  0  0  0  0  0  0
   -5.1291   -7.1307   -3.4744 H   0  0  0  0  0  0  0  0  0  0  0  0
   -5.0527   -5.3982   -3.1965 H   0  0  0  0  0  0  0  0  0  0  0  0
   -7.6028   -6.9399   -3.8773 H   0  0  0  0  0  0  0  0  0  0  0  0
   -7.1233   -6.4488   -2.2544 H   0  0  0  0  0  0  0  0  0  0  0  0
   -7.5201   -5.2280   -3.4586 H   0  0  0  0  0  0  0  0  0  0  0  0
   -3.0961    1.9656   -3.4296 H   0  0  0  0  0  0  0  0  0  0  0  0
   -4.7603    1.6448   -3.9187 H   0  0  0  0  0  0  0  0  0  0  0  0
   -4.5783    0.8399   -1.8177 H   0  0  0  0  0  0  0  0  0  0  0  0
   -4.6341   -0.5982   -2.8026 H   0  0  0  0  0  0  0  0  0  0  0  0
   -2.1512    0.6023   -1.4685 H   0  0  0  0  0  0  0  0  0  0  0  0
   -3.0552   -0.7905   -0.9128 H   0  0  0  0  0  0  0  0  0  0  0  0
   -2.1353   -0.9027   -2.3984 H   0  0  0  0  0  0  0  0  0  0  0  0
  1  2  1  0  0  0  0
  2  3  1  0  0  0  0
  3  4  1  0  0  0  0
  4  5  1  0  0  0  0
  5  6  1  0  0  0  0
  6  7  1  0  0  0  0
  7  8  1  0  0  0  0
  8  9  1  0  0  0  0
  9 10  1  0  0  0  0
 10 11  1  0  0  0  0
 11 12  1  0  0  0  0
 12 13  1  0  0  0  0
 13 14  1  0  0  0  0
 14 15  1  0  0  0  0
 15 16  1  0  0  0  0
 16 17  1  0  0  0  0
  9 18  1  0  0  0  0
 18 19  1  0  0  0  0
 19 20  1  0  0  0  0
 20 21  1  0  0  0  0
 21 22  1  0  0  0  0
 22 23  1  0  0  0  0
 23 24  1  0  0  0  0
 24 25  1  0  0  0  0
  9 26  1  0  0  0  0
 26 27  1  0  0  0  0
 27 28  1  0  0  0  0
  1 29  1  0  0  0  0
  1 30  1  0  0  0  0
  1 31  1  0  0  0  0
  2 32  1  0  0  0  0
  2 33  1  0  0  0  0
  3 34  1  0  0  0  0
  3 35  1  0  0  0  0
  4 36  1  0  0  0  0
  4 37  1  0  0  0  0
  5 38  1  0  0  0  0
  5 39  1  0  0  0  0
  6 40  1  0  0  0  0
  6 41  1  0  0  0  0
  7 42  1  0  0  0  0
  7 43  1  0  0  0  0
  8 44  1  0  0  0  0
  8 45  1  0  0  0  0
 10 46  1  0  0  0  0
 10 47  1  0  0  0  0
 11 48  1  0  0  0  0
 11 49  1  0  0  0  0
 12 50  1  0  0  0  0
 12 51  1  0  0  0  0
 13 52  1  0  0  0  0
 13 53  1  0  0  0  0
 14 54  1  0  0  0  0
 14 55  1  0  0  0  0
 15 56  1  0  0  0  0
 15 57  1  0  0  0  0
 16 58  1  0  0  0  0
 16 59  1  0  0  0  0
 17 60  1  0  0  0  0
 17 61  1  0  0  0  0
 17 62  1  0  0  0  0
 18 63  1  0  0  0  0
 18 64  1  0  0  0  0
 19 65  1  0  0  0  0
 19 66  1  0  0  0  0
 20 67  1  0  0  0  0
 20 68  1  0  0  0  0
 21 69  1  0  0  0  0
 21 70  1  0  0  0  0
 22 71  1  0  0  0  0
 22 72  1  0  0  0  0
 23 73  1  0  0  0  0
 23 74  1  0  0  0  0
 24 75  1  0  0  0  0
 24 76  1  0  0  0  0
 25 77  1  0  0  0  0
 25 78  1  0  0  0  0
 25 79  1  0  0  0  0
 26 80  1  0  0  0  0
 26 81  1  0  0  0  0
 27 82  1  0  0  0  0
 27 83  1  0  0  0  0
 28 84  1  0  0  0  0
 28 85  1  0  0  0  0
 28 86  1  0  0  0  0
M  CHG  1   1   1
M  END
