36

C          0.47665        0.37837       -0.67499
C          0.42811       -1.06363       -0.19406
C          1.23833       -1.30190        1.08122
C          0.74872       -0.55609        2.32866
C         -0.69306       -0.84853        2.77344
C         -1.00107       -2.31395        3.10287
N         -0.96144       -2.66314        4.60939
C         -2.14152       -2.03116        5.33522
C          0.35190       -2.32905        5.30928
C          1.30294       -3.41352        4.84748
C          0.43899       -4.65325        4.66222
C         -1.01118       -4.19534        4.76549
H         -0.01444        1.05414        0.03100
H         -0.03672        0.47135       -1.63736
H          1.51072        0.71129       -0.81120
H         -0.61310       -1.37262       -0.05431
H          0.83695       -1.70436       -0.98490
H          1.26916       -2.37844        1.28095
H          2.27945       -1.00772        0.89587
H          1.44253       -0.77847        3.14464
H          0.83901        0.52344        2.15698
H         -0.93604       -0.18929        3.61236
H         -1.36318       -0.53939        1.96181
H         -2.02133       -2.55145        2.77666
H         -0.33117       -3.00401        2.58463
H         -2.03777       -0.94484        5.30263
H         -3.06267       -2.35217        4.84095
H         -2.13683       -2.36853        6.37643
H          0.17909       -2.41023        6.38980
H          0.66016       -1.30906        5.07942
H          1.76868       -3.13830        3.89455
H          2.11163       -3.57842        5.56597
H          0.63630       -5.11306        3.68741
H          0.65648       -5.41055        5.42299
H         -1.66915       -4.61957        4.00085
H         -1.41073       -4.41856        5.76164
