72

C          1.22723        0.29207       -0.54457
C          1.14378       -1.21616       -0.72321
C          1.46547       -2.00130        0.55118
C          0.54962       -1.72190        1.74767
C         -0.94186       -1.97909        1.50820
C         -1.30804       -3.41960        1.13336
C         -0.93209       -4.48517        2.16922
C         -1.51798       -4.27552        3.56958
C         -3.04873       -4.23836        3.64092
C         -3.75937       -5.52725        3.21099
C         -3.36359       -6.79094        3.98401
C         -3.49523       -6.69759        5.50738
C         -4.91905       -6.47213        6.02835
C         -5.87620       -7.64675        5.82281
N         -5.36658       -8.86573        6.50046
C         -5.34343       -8.92241        7.85351
C         -4.80247      -10.02214        8.50915
C         -4.29380      -11.08941        7.77058
C         -4.38440      -11.03460        6.37921
C         -4.92425       -9.91046        5.76403
C         -3.64895      -12.26910        8.46185
C         -2.15894      -12.43999        8.13367
C         -1.26244      -11.25970        8.53067
C         -1.22498      -10.93119       10.02646
C         -0.74111      -12.06201       10.93712
C          0.67838      -12.51759       10.63525
H          0.45675        0.65884        0.13994
H          1.08021        0.79327       -1.50668
H          2.20641        0.58795       -0.15499
H          0.15081       -1.48601       -1.09865
H          1.85822       -1.51363       -1.50039
H          1.44548       -3.07222        0.31759
H          2.49764       -1.77846        0.85023
H          0.89361       -2.32491        2.59630
H          0.67519       -0.67885        2.06205
H         -1.49295       -1.68605        2.40953
H         -1.30442       -1.31148        0.71785
H         -2.38725       -3.46458        0.94493
H         -0.83396       -3.67975        0.17959
H         -1.24179       -5.46548        1.78806
H          0.15998       -4.53556        2.25504
H         -1.13842       -5.06711        4.22600
H         -1.12879       -3.34074        3.98986
H         -3.34129       -3.99114        4.66834
H         -3.42552       -3.41178        3.02740
H         -4.84109       -5.37299        3.30396
H         -3.57856       -5.70273        2.14371
H         -3.96419       -7.62902        3.61230
H         -2.32411       -7.04473        3.74351
H         -3.08079       -7.61081        5.94987
H         -2.85913       -5.88621        5.87904
H         -4.85087       -6.24790        7.09979
H         -5.35157       -5.57840        5.56543
H         -6.85807       -7.43229        6.26047
H         -6.02728       -7.86595        4.76120
H         -5.73927       -8.07213        8.40114
H         -4.76614      -10.03224        9.59752
H         -4.02000      -11.85797        5.76755
H         -4.98705       -9.83318        4.68222
H         -3.78495      -12.19498        9.54732
H         -4.18800      -13.17559        8.15778
H         -1.79650      -13.35471        8.61688
H         -2.03983      -12.60741        7.05574
H         -0.24413      -11.46582        8.18001
H         -1.58039      -10.36127        7.98769
H         -0.57101      -10.06139       10.16903
H         -2.22003      -10.61511       10.35924
H         -0.77800      -11.70733       11.97433
H         -1.42164      -12.91823       10.87945
H          1.37589      -11.67436       10.66215
H          1.00462      -13.25035       11.38023
H          0.74689      -12.99267        9.65225
