 xtb: 6.7.1 (edcfbbe)
          12202402053D

 36 36  0     0  0            999 V2000
    0.3395    0.4194   -0.5726 C   0  0  0  0  0  0  0  0  0  0  0  0
    0.3513   -1.0530   -0.1804 C   0  0  0  0  0  0  0  0  0  0  0  0
    1.2408   -1.3508    1.0281 C   0  0  0  0  0  0  0  0  0  0  0  0
    0.8536   -0.6190    2.3163 C   0  0  0  0  0  0  0  0  0  0  0  0
   -0.5806   -0.8715    2.7986 C   0  0  0  0  0  0  0  0  0  0  0  0
   -0.8869   -2.3345    3.1443 C   0  0  0  0  0  0  0  0  0  0  0  0
   -0.9586   -2.6673    4.6000 N   0  0  0  0  0  0  0  0  0  0  0  0
   -2.1337   -2.0278    5.2086 C   0  0  0  0  0  0  0  0  0  0  0  0
    0.2963   -2.3237    5.3158 C   0  0  0  0  0  0  0  0  0  0  0  0
    1.2934   -3.4134    4.9257 C   0  0  0  0  0  0  0  0  0  0  0  0
    0.4211   -4.6431    4.6128 C   0  0  0  0  0  0  0  0  0  0  0  0
   -1.0201   -4.1472    4.7559 C   0  0  0  0  0  0  0  0  0  0  0  0
   -0.1364    1.0339    0.1877 H   0  0  0  0  0  0  0  0  0  0  0  0
   -0.2089    0.5521   -1.5012 H   0  0  0  0  0  0  0  0  0  0  0  0
    1.3538    0.7800   -0.7233 H   0  0  0  0  0  0  0  0  0  0  0  0
   -0.6696   -1.3931    0.0074 H   0  0  0  0  0  0  0  0  0  0  0  0
    0.7318   -1.6354   -1.0214 H   0  0  0  0  0  0  0  0  0  0  0  0
    1.2528   -2.4319    1.1928 H   0  0  0  0  0  0  0  0  0  0  0  0
    2.2636   -1.0589    0.7832 H   0  0  0  0  0  0  0  0  0  0  0  0
    1.5724   -0.8902    3.0931 H   0  0  0  0  0  0  0  0  0  0  0  0
    0.9584    0.4529    2.1492 H   0  0  0  0  0  0  0  0  0  0  0  0
   -0.7792   -0.2176    3.6486 H   0  0  0  0  0  0  0  0  0  0  0  0
   -1.2614   -0.5594    2.0073 H   0  0  0  0  0  0  0  0  0  0  0  0
   -1.8494   -2.6225    2.7177 H   0  0  0  0  0  0  0  0  0  0  0  0
   -0.1220   -2.9684    2.6987 H   0  0  0  0  0  0  0  0  0  0  0  0
   -2.0686   -0.9456    5.1231 H   0  0  0  0  0  0  0  0  0  0  0  0
   -3.0399   -2.3639    4.7075 H   0  0  0  0  0  0  0  0  0  0  0  0
   -2.2005   -2.2872    6.2637 H   0  0  0  0  0  0  0  0  0  0  0  0
    0.0936   -2.3607    6.3874 H   0  0  0  0  0  0  0  0  0  0  0  0
    0.6291   -1.3209    5.0594 H   0  0  0  0  0  0  0  0  0  0  0  0
    1.8799   -3.1185    4.0570 H   0  0  0  0  0  0  0  0  0  0  0  0
    1.9899   -3.6042    5.7383 H   0  0  0  0  0  0  0  0  0  0  0  0
    0.6172   -5.0207    3.6108 H   0  0  0  0  0  0  0  0  0  0  0  0
    0.6109   -5.4589    5.3061 H   0  0  0  0  0  0  0  0  0  0  0  0
   -1.6999   -4.5824    4.0248 H   0  0  0  0  0  0  0  0  0  0  0  0
   -1.3993   -4.3666    5.7550 H   0  0  0  0  0  0  0  0  0  0  0  0
  1  2  1  0  0  0  0
  2  3  1  0  0  0  0
  3  4  1  0  0  0  0
  4  5  1  0  0  0  0
  5  6  1  0  0  0  0
  6  7  1  0  0  0  0
  7  8  1  0  0  0  0
  7  9  1  0  0  0  0
  9 10  1  0  0  0  0
 10 11  1  0  0  0  0
  7 12  1  0  0  0  0
 11 12  1  0  0  0  0
  1 13  1  0  0  0  0
  1 14  1  0  0  0  0
  1 15  1  0  0  0  0
  2 16  1  0  0  0  0
  2 17  1  0  0  0  0
  3 18  1  0  0  0  0
  3 19  1  0  0  0  0
  4 20  1  0  0  0  0
  4 21  1  0  0  0  0
  5 22  1  0  0  0  0
  5 23  1  0  0  0  0
  6 24  1  0  0  0  0
  6 25  1  0  0  0  0
  8 26  1  0  0  0  0
  8 27  1  0  0  0  0
  8 28  1  0  0  0  0
  9 29  1  0  0  0  0
  9 30  1  0  0  0  0
 10 31  1  0  0  0  0
 10 32  1  0  0  0  0
 11 33  1  0  0  0  0
 11 34  1  0  0  0  0
 12 35  1  0  0  0  0
 12 36  1  0  0  0  0
M  CHG  1   1   1
M  END
