61

C          1.03378       -0.61000       -0.22927
C          1.00705       -0.66104        1.29072
C          1.37607        0.66931        1.95244
C          0.45311        1.84817        1.62486
C         -1.01997        1.65580        2.00083
C         -1.29179        1.40501        3.48839
C         -0.82190        2.51164        4.44003
C         -1.41859        3.90076        4.18349
C         -2.94750        3.98524        4.25584
C         -3.56365        3.59140        5.60244
C         -3.14467        4.45921        6.79451
C         -3.52276        5.94259        6.69749
C         -5.01762        6.24069        6.52022
C         -5.94866        5.61868        7.56716
C         -5.69698        6.06457        9.01045
C         -6.12231        7.50136        9.30768
N         -7.56933        7.73324        9.17622
C         -8.58749        6.97785        9.74333
C         -9.76541        7.58518        9.41309
N         -9.44091        8.71199        8.67846
C         -8.10857        8.78582        8.53889
C        -10.38536        9.69614        8.16523
H          0.25567        0.05064       -0.62258
H          0.85965       -1.60886       -0.64220
H          2.00423       -0.25820       -0.59354
H          0.02120       -0.99758        1.62903
H          1.72376       -1.42142        1.62418
H          1.41167        0.52283        3.03824
H          2.39668        0.93943        1.65272
H          0.84290        2.74279        2.12466
H          0.51147        2.06575        0.55171
H         -1.57929        2.54023        1.67370
H         -1.43553        0.81986        1.42581
H         -2.36833        1.24525        3.62179
H         -0.81797        0.46332        3.79010
H         -1.04694        2.20382        5.46804
H          0.27077        2.58978        4.39250
H         -0.98100        4.60468        4.90107
H         -1.09880        4.25484        3.19633
H         -3.25186        5.00720        4.00141
H         -3.38260        3.34855        3.47651
H         -4.65507        3.61245        5.50272
H         -3.31231        2.54817        5.82692
H         -3.58588        4.03407        7.70392
H         -2.06018        4.38510        6.93727
H         -3.15916        6.45086        7.59859
H         -2.97686        6.40213        5.86477
H         -5.15636        7.32824        6.50892
H         -5.33411        5.89234        5.52957
H         -6.98524        5.84326        7.28888
H         -5.86176        4.52699        7.52248
H         -6.23763        5.38338        9.67752
H         -4.63790        5.94775        9.26361
H         -5.85607        7.75810       10.33986
H         -5.59588        8.20436        8.65324
H         -8.34533        6.09804       10.31429
H        -10.79965        7.36879        9.62030
H         -7.56421        9.56651        8.02005
H        -10.57062       10.44220        8.94281
H         -9.96537       10.18188        7.28074
H        -11.32310        9.20324        7.89472
