 xtb: 6.7.1 (edcfbbe)
          12202402063D

 31 31  0     0  0            999 V2000
    1.0565    0.3518    0.1468 C   0  0  0  0  0  0  0  0  0  0  0  0
    0.5573    0.7351   -1.2408 C   0  0  0  0  0  0  0  0  0  0  0  0
    1.0751   -0.1865   -2.3475 C   0  0  0  0  0  0  0  0  0  0  0  0
    0.6886   -1.6604   -2.1955 C   0  0  0  0  0  0  0  0  0  0  0  0
   -0.8157   -1.9308   -2.1465 C   0  0  0  0  0  0  0  0  0  0  0  0
   -1.5598   -1.5578   -3.4349 C   0  0  0  0  0  0  0  0  0  0  0  0
   -1.1499   -2.3954   -4.5389 N   0  0  0  0  0  0  0  0  0  0  0  0
   -0.1601   -2.1205   -5.4308 C   0  0  0  0  0  0  0  0  0  0  0  0
   -0.0521   -3.1936   -6.2632 C   0  0  0  0  0  0  0  0  0  0  0  0
   -0.9767   -4.1097   -5.8634 N   0  0  0  0  0  0  0  0  0  0  0  0
   -1.6256   -3.6063   -4.8170 C   0  0  0  0  0  0  0  0  0  0  0  0
   -1.1947   -5.3936   -6.4731 C   0  0  0  0  0  0  0  0  0  0  0  0
    0.6488   -0.6030    0.4695 H   0  0  0  0  0  0  0  0  0  0  0  0
    0.7558    1.1049    0.8701 H   0  0  0  0  0  0  0  0  0  0  0  0
    2.1416    0.2863    0.1562 H   0  0  0  0  0  0  0  0  0  0  0  0
   -0.5347    0.7565   -1.2447 H   0  0  0  0  0  0  0  0  0  0  0  0
    0.8974    1.7473   -1.4673 H   0  0  0  0  0  0  0  0  0  0  0  0
    0.7287    0.1990   -3.3102 H   0  0  0  0  0  0  0  0  0  0  0  0
    2.1654   -0.1329   -2.3579 H   0  0  0  0  0  0  0  0  0  0  0  0
    1.1399   -2.2295   -3.0136 H   0  0  0  0  0  0  0  0  0  0  0  0
    1.1233   -2.0390   -1.2708 H   0  0  0  0  0  0  0  0  0  0  0  0
   -0.9821   -2.9895   -1.9351 H   0  0  0  0  0  0  0  0  0  0  0  0
   -1.2607   -1.3601   -1.3330 H   0  0  0  0  0  0  0  0  0  0  0  0
   -2.6347   -1.6812   -3.2885 H   0  0  0  0  0  0  0  0  0  0  0  0
   -1.3568   -0.5194   -3.6978 H   0  0  0  0  0  0  0  0  0  0  0  0
    0.3865   -1.1997   -5.4229 H   0  0  0  0  0  0  0  0  0  0  0  0
    0.6035   -3.3605   -7.0934 H   0  0  0  0  0  0  0  0  0  0  0  0
   -2.4176   -4.0966   -4.2846 H   0  0  0  0  0  0  0  0  0  0  0  0
   -0.3338   -6.0423   -6.3029 H   0  0  0  0  0  0  0  0  0  0  0  0
   -2.0803   -5.8613   -6.0486 H   0  0  0  0  0  0  0  0  0  0  0  0
   -1.3318   -5.2774   -7.5483 H   0  0  0  0  0  0  0  0  0  0  0  0
  1  2  1  0  0  0  0
  2  3  1  0  0  0  0
  3  4  1  0  0  0  0
  4  5  1  0  0  0  0
  5  6  1  0  0  0  0
  6  7  1  0  0  0  0
  7  8  4  0  0  0  0
  8  9  2  0  0  0  0
  9 10  4  0  0  0  0
  7 11  4  0  0  0  0
 10 11  4  0  0  0  0
 10 12  1  0  0  0  0
  1 13  1  0  0  0  0
  1 14  1  0  0  0  0
  1 15  1  0  0  0  0
  2 16  1  0  0  0  0
  2 17  1  0  0  0  0
  3 18  1  0  0  0  0
  3 19  1  0  0  0  0
  4 20  1  0  0  0  0
  4 21  1  0  0  0  0
  5 22  1  0  0  0  0
  5 23  1  0  0  0  0
  6 24  1  0  0  0  0
  6 25  1  0  0  0  0
  8 26  1  0  0  0  0
  9 27  1  0  0  0  0
 11 28  1  0  0  0  0
 12 29  1  0  0  0  0
 12 30  1  0  0  0  0
 12 31  1  0  0  0  0
M  CHG  1   1   1
M  END
