33

O          1.34760        0.17589       -0.33222
C          2.55734       -0.01553       -0.18887
C          3.07698       -1.11416        0.61708
C          2.36763       -2.21296        1.06792
C          3.17898       -3.12323        1.80553
C          4.47613       -2.67835        1.92055
S          4.70546       -1.17576        1.14252
C          3.55953        0.89825       -0.90810
N          2.99980        1.43984       -2.17011
C          2.72790        2.74080       -2.42096
C          2.99206        3.89570       -1.51140
N          2.18228        2.79357       -3.65605
C          2.12572        1.53719       -4.23520
C          2.63844        0.66020       -3.27519
C          2.72145       -0.71399       -3.49892
C          2.26090       -1.16692       -4.74224
C          1.75437       -0.28119       -5.71146
C          1.67810        1.09898       -5.47972
N          1.75147        3.99712       -4.32995
H          1.31292       -2.36744        0.86309
H          2.82809       -4.05524        2.23480
H          5.29837       -3.16410        2.43084
H          3.82462        1.71390       -0.23109
H          4.46771        0.35840       -1.19144
H          2.25113        3.84915       -0.71262
H          4.00765        3.78834       -1.12837
H          2.90759        4.82372       -2.07563
H          3.11208       -1.40098       -2.75906
H          2.29503       -2.23392       -4.96663
H          1.41197       -0.68193       -6.66638
H          1.29423        1.78250       -6.22557
H          1.43214        4.73158       -3.69978
H          1.06905        3.82174       -5.06701
