 xtb: 6.7.1 (edcfbbe)
          12202402073D

 32 31  0     0  0            999 V2000
    1.7830   -1.0584    1.7544 O   0  0  0  0  0  0  0  0  0  0  0  0
    0.9796   -0.0738    1.3565 C   0  0  0  0  0  0  0  0  0  0  0  0
    1.3698    1.0337    1.1027 O   0  0  0  0  0  0  0  0  0  0  0  0
   -0.4542   -0.5496    1.2616 C   0  0  0  0  0  0  0  0  0  0  0  0
   -1.4474    0.5918    1.0507 C   0  0  0  0  0  0  0  0  0  0  0  0
   -1.2963    1.3007   -0.2987 C   0  0  0  0  0  0  0  0  0  0  0  0
   -1.8126    0.4862   -1.4899 C   0  0  0  0  0  0  0  0  0  0  0  0
   -3.3436    0.4247   -1.5775 C   0  0  0  0  0  0  0  0  0  0  0  0
   -3.9871    1.3427   -2.5704 N   0  0  0  0  0  0  0  0  0  0  0  0
   -3.6414    0.9446   -3.9472 C   0  0  0  0  0  0  0  0  0  0  0  0
   -5.4507    1.2404   -2.4076 C   0  0  0  0  0  0  0  0  0  0  0  0
   -3.5843    2.7420   -2.3455 C   0  0  0  0  0  0  0  0  0  0  0  0
    2.7027   -0.7557    1.8245 H   0  0  0  0  0  0  0  0  0  0  0  0
   -0.5011   -1.2854    0.4566 H   0  0  0  0  0  0  0  0  0  0  0  0
   -0.6812   -1.0794    2.1879 H   0  0  0  0  0  0  0  0  0  0  0  0
   -2.4597    0.1991    1.1692 H   0  0  0  0  0  0  0  0  0  0  0  0
   -1.2830    1.3293    1.8365 H   0  0  0  0  0  0  0  0  0  0  0  0
   -1.8110    2.2604   -0.2453 H   0  0  0  0  0  0  0  0  0  0  0  0
   -0.2382    1.5129   -0.4445 H   0  0  0  0  0  0  0  0  0  0  0  0
   -1.3826    0.8841   -2.4083 H   0  0  0  0  0  0  0  0  0  0  0  0
   -1.4387   -0.5334   -1.3986 H   0  0  0  0  0  0  0  0  0  0  0  0
   -3.6627   -0.5860   -1.8383 H   0  0  0  0  0  0  0  0  0  0  0  0
   -3.7590    0.6643   -0.5966 H   0  0  0  0  0  0  0  0  0  0  0  0
   -3.9473   -0.0842   -4.1289 H   0  0  0  0  0  0  0  0  0  0  0  0
   -4.1491    1.5911   -4.6608 H   0  0  0  0  0  0  0  0  0  0  0  0
   -2.5700    1.0230   -4.1154 H   0  0  0  0  0  0  0  0  0  0  0  0
   -5.7437    1.5480   -1.4053 H   0  0  0  0  0  0  0  0  0  0  0  0
   -5.9543    1.8829   -3.1276 H   0  0  0  0  0  0  0  0  0  0  0  0
   -5.7799    0.2152   -2.5674 H   0  0  0  0  0  0  0  0  0  0  0  0
   -3.8467    3.0477   -1.3345 H   0  0  0  0  0  0  0  0  0  0  0  0
   -2.5123    2.8603   -2.4827 H   0  0  0  0  0  0  0  0  0  0  0  0
   -4.0980    3.3943   -3.0500 H   0  0  0  0  0  0  0  0  0  0  0  0
  1  2  1  0  0  0  0
  2  3  2  0  0  0  0
  2  4  1  0  0  0  0
  4  5  1  0  0  0  0
  5  6  1  0  0  0  0
  6  7  1  0  0  0  0
  7  8  1  0  0  0  0
  8  9  1  0  0  0  0
  9 10  1  0  0  0  0
  9 11  1  0  0  0  0
  9 12  1  0  0  0  0
  1 13  1  0  0  0  0
  4 14  1  0  0  0  0
  4 15  1  0  0  0  0
  5 16  1  0  0  0  0
  5 17  1  0  0  0  0
  6 18  1  0  0  0  0
  6 19  1  0  0  0  0
  7 20  1  0  0  0  0
  7 21  1  0  0  0  0
  8 22  1  0  0  0  0
  8 23  1  0  0  0  0
 10 24  1  0  0  0  0
 10 25  1  0  0  0  0
 10 26  1  0  0  0  0
 11 27  1  0  0  0  0
 11 28  1  0  0  0  0
 11 29  1  0  0  0  0
 12 30  1  0  0  0  0
 12 31  1  0  0  0  0
 12 32  1  0  0  0  0
M  CHG  1   1   1
M  END
