48

O          1.54508       -0.57197        0.10238
C          2.57782        0.09478       -0.00547
C          3.91216       -0.54810        0.37915
N          4.38256       -1.40230       -0.71477
C          5.50847       -1.18798       -1.49898
C          6.43076       -0.14467       -1.53353
C          7.44419       -0.24847       -2.49519
C          7.52523       -1.34966       -3.36721
C          6.60135       -2.40151       -3.31299
C          5.59529       -2.28867       -2.35620
N          4.53972       -3.13318       -2.00985
C          3.77124       -2.51048       -1.12587
N          2.57055       -2.91655       -0.71421
C          4.35276       -4.48842       -2.51530
C          5.22775       -5.42399       -1.71872
C          4.88540       -5.78527       -0.40587
C          5.71651       -6.62389        0.33973
C          6.89941       -7.10750       -0.21401
C          7.25083       -6.75958       -1.51555
C          6.41967       -5.92544       -2.26522
N          2.71535        1.34656       -0.57186
C          1.69290        2.19406       -1.04368
C          0.33144        1.95230       -0.85902
C         -0.61662        2.85475       -1.35268
C         -0.21109        4.00012       -2.03439
C          1.14479        4.25004       -2.22055
C          2.09249        3.35329       -1.72334
H          4.65333        0.21587        0.62819
H          3.76665       -1.16595        1.27220
H          6.37555        0.70117       -0.86154
H          8.19183        0.54179       -2.57123
H          8.33112       -1.38616       -4.10100
H          6.66504       -3.24807       -3.98331
H          1.96656       -2.28262       -0.18782
H          2.13024       -3.74736       -1.07453
H          3.30437       -4.79088       -2.43607
H          4.60104       -4.51659       -3.58220
H          3.97162       -5.41950        0.05428
H          5.44469       -6.90243        1.35557
H          7.54751       -7.75887        0.36832
H          8.17454       -7.14064       -1.94595
H          6.71881       -5.67395       -3.28015
H          3.65592        1.68384       -0.74001
H         -0.03212        1.08224       -0.32247
H         -1.67663        2.66481       -1.19929
H         -0.95191        4.69910       -2.41577
H          1.46381        5.14442       -2.75074
H          3.14340        3.57870       -1.88484
