 xtb: 6.7.1 (edcfbbe)
          12202402073D

 48 51  0     0  0            999 V2000
    1.5694   -0.4786   -0.4116 O   0  0  0  0  0  0  0  0  0  0  0  0
    2.5393    0.2648   -0.3658 C   0  0  0  0  0  0  0  0  0  0  0  0
    3.9056   -0.3101    0.0624 C   0  0  0  0  0  0  0  0  0  0  0  0
    4.4065   -1.2740   -0.8962 N   0  0  0  0  0  0  0  0  0  0  0  0
    5.6190   -1.1960   -1.5731 C   0  0  0  0  0  0  0  0  0  0  0  0
    6.5827   -0.2053   -1.6453 C   0  0  0  0  0  0  0  0  0  0  0  0
    7.7010   -0.4668   -2.4179 C   0  0  0  0  0  0  0  0  0  0  0  0
    7.8566   -1.6739   -3.0926 C   0  0  0  0  0  0  0  0  0  0  0  0
    6.8969   -2.6684   -3.0261 C   0  0  0  0  0  0  0  0  0  0  0  0
    5.7741   -2.4082   -2.2608 C   0  0  0  0  0  0  0  0  0  0  0  0
    4.6446   -3.1728   -1.9982 N   0  0  0  0  0  0  0  0  0  0  0  0
    3.8491   -2.4773   -1.1683 C   0  0  0  0  0  0  0  0  0  0  0  0
    2.7014   -2.8857   -0.6362 N   0  0  0  0  0  0  0  0  0  0  0  0
    4.4490   -4.5229   -2.4844 C   0  0  0  0  0  0  0  0  0  0  0  0
    5.3079   -5.5072   -1.7223 C   0  0  0  0  0  0  0  0  0  0  0  0
    5.2690   -5.5366   -0.3336 C   0  0  0  0  0  0  0  0  0  0  0  0
    6.0591   -6.4300    0.3670 C   0  0  0  0  0  0  0  0  0  0  0  0
    6.8903   -7.3036   -0.3144 C   0  0  0  0  0  0  0  0  0  0  0  0
    6.9292   -7.2810   -1.6980 C   0  0  0  0  0  0  0  0  0  0  0  0
    6.1445   -6.3823   -2.4001 C   0  0  0  0  0  0  0  0  0  0  0  0
    2.5420    1.5672   -0.6600 N   0  0  0  0  0  0  0  0  0  0  0  0
    1.4607    2.3915   -1.0500 C   0  0  0  0  0  0  0  0  0  0  0  0
    0.1525    1.9346   -1.1445 C   0  0  0  0  0  0  0  0  0  0  0  0
   -0.8465    2.8112   -1.5319 C   0  0  0  0  0  0  0  0  0  0  0  0
   -0.5537    4.1316   -1.8259 C   0  0  0  0  0  0  0  0  0  0  0  0
    0.7523    4.5846   -1.7296 C   0  0  0  0  0  0  0  0  0  0  0  0
    1.7577    3.7198   -1.3422 C   0  0  0  0  0  0  0  0  0  0  0  0
    4.6599    0.4670    0.1787 H   0  0  0  0  0  0  0  0  0  0  0  0
    3.7627   -0.8095    1.0287 H   0  0  0  0  0  0  0  0  0  0  0  0
    6.4835    0.7336   -1.1252 H   0  0  0  0  0  0  0  0  0  0  0  0
    8.4719    0.2829   -2.4950 H   0  0  0  0  0  0  0  0  0  0  0  0
    8.7464   -1.8381   -3.6785 H   0  0  0  0  0  0  0  0  0  0  0  0
    7.0256   -3.6053   -3.5411 H   0  0  0  0  0  0  0  0  0  0  0  0
    2.0495   -2.1477   -0.3307 H   0  0  0  0  0  0  0  0  0  0  0  0
    2.3051   -3.7635   -0.9291 H   0  0  0  0  0  0  0  0  0  0  0  0
    3.3909   -4.7844   -2.3909 H   0  0  0  0  0  0  0  0  0  0  0  0
    4.7069   -4.5402   -3.5465 H   0  0  0  0  0  0  0  0  0  0  0  0
    4.6184   -4.8619    0.2058 H   0  0  0  0  0  0  0  0  0  0  0  0
    6.0213   -6.4469    1.4450 H   0  0  0  0  0  0  0  0  0  0  0  0
    7.5038   -8.0021    0.2326 H   0  0  0  0  0  0  0  0  0  0  0  0
    7.5729   -7.9614   -2.2335 H   0  0  0  0  0  0  0  0  0  0  0  0
    6.1755   -6.3708   -3.4799 H   0  0  0  0  0  0  0  0  0  0  0  0
    3.4161    2.0725   -0.5890 H   0  0  0  0  0  0  0  0  0  0  0  0
   -0.0846    0.9100   -0.9149 H   0  0  0  0  0  0  0  0  0  0  0  0
   -1.8620    2.4538   -1.6017 H   0  0  0  0  0  0  0  0  0  0  0  0
   -1.3386    4.8070   -2.1273 H   0  0  0  0  0  0  0  0  0  0  0  0
    0.9898    5.6125   -1.9547 H   0  0  0  0  0  0  0  0  0  0  0  0
    2.7760    4.0751   -1.2648 H   0  0  0  0  0  0  0  0  0  0  0  0
  1  2  2  0  0  0  0
  2  3  1  0  0  0  0
  3  4  1  0  0  0  0
  4  5  1  0  0  0  0
  5  6  4  0  0  0  0
  6  7  4  0  0  0  0
  7  8  4  0  0  0  0
  8  9  4  0  0  0  0
  5 10  4  0  0  0  0
  9 10  4  0  0  0  0
 10 11  1  0  0  0  0
  4 12  4  0  0  0  0
 11 12  4  0  0  0  0
 12 13  4  0  0  0  0
 11 14  1  0  0  0  0
 14 15  1  0  0  0  0
 15 16  4  0  0  0  0
 16 17  4  0  0  0  0
 17 18  4  0  0  0  0
 18 19  4  0  0  0  0
 15 20  4  0  0  0  0
 19 20  4  0  0  0  0
  2 21  4  0  0  0  0
 21 22  1  0  0  0  0
 22 23  4  0  0  0  0
 23 24  4  0  0  0  0
 24 25  4  0  0  0  0
 25 26  4  0  0  0  0
 22 27  4  0  0  0  0
 26 27  4  0  0  0  0
  3 28  1  0  0  0  0
  3 29  1  0  0  0  0
  6 30  1  0  0  0  0
  7 31  1  0  0  0  0
  8 32  1  0  0  0  0
  9 33  1  0  0  0  0
 13 34  1  0  0  0  0
 13 35  1  0  0  0  0
 14 36  1  0  0  0  0
 14 37  1  0  0  0  0
 16 38  1  0  0  0  0
 17 39  1  0  0  0  0
 18 40  1  0  0  0  0
 19 41  1  0  0  0  0
 20 42  1  0  0  0  0
 21 43  1  0  0  0  0
 23 44  1  0  0  0  0
 24 45  1  0  0  0  0
 25 46  1  0  0  0  0
 26 47  1  0  0  0  0
 27 48  1  0  0  0  0
M  CHG  1   1   1
M  END
