33

C          0.97152       -0.05774        0.39470
C         -0.35351       -0.51633        1.00521
C         -0.17069       -1.42940        2.21902
C         -1.47860       -1.64679        2.96160
S          1.60732        1.54031        1.01235
C          1.86967        1.22782        2.73907
N          2.90609        0.42417        3.07315
C          3.06730       -0.24701        4.37632
C          3.99106        0.08857        2.10861
N          1.01881        1.83653        3.60097
C         -0.11552        2.68107        3.12327
C          1.22258        1.91472        5.05943
H          0.81525        0.09596       -0.67909
H          1.73581       -0.83346        0.48656
H         -0.99878        0.33512        1.23939
H         -0.89421       -1.09514        0.24427
H          0.22277       -2.39781        1.88716
H          0.55638       -1.01804        2.91991
H         -2.24717       -2.05791        2.30039
H         -1.32993       -2.34561        3.79092
H         -1.84771       -0.70374        3.37808
H          3.61953       -1.18417        4.24380
H          3.63324        0.39184        5.05752
H          2.09552       -0.52342        4.78859
H          3.69756       -0.77561        1.50932
H          4.23594        0.94863        1.47998
H          4.90355       -0.16417        2.65995
H         -0.77982        2.93242        3.95665
H          0.27709        3.60923        2.69784
H         -0.72375        2.14032        2.39773
H          0.80993        1.02393        5.53773
H          2.28076        2.05159        5.28802
H          0.70958        2.78964        5.47315
