 xtb: 6.7.1 (edcfbbe)
          12202402073D

 26 25  0     0  0            999 V2000
   -0.0357   -1.0749    0.7133 C   0  0  0  0  0  0  0  0  0  0  0  0
    1.4529   -1.0556    1.0095 C   0  0  0  0  0  0  0  0  0  0  0  0
    1.7467   -0.2062    2.1422 O   0  0  0  0  0  0  0  0  0  0  0  0
    1.9048    1.0738    1.9301 C   0  0  0  0  0  0  0  0  0  0  0  0
    1.8596    1.6504    0.8774 O   0  0  0  0  0  0  0  0  0  0  0  0
    2.1868    1.7667    3.2841 C   0  0  0  0  0  0  0  0  0  0  0  0
    2.4074    3.2301    3.2141 N   0  0  0  0  0  0  0  0  0  0  0  0
    1.2097    3.9040    2.6736 C   0  0  0  0  0  0  0  0  0  0  0  0
    2.6687    3.7303    4.5779 C   0  0  0  0  0  0  0  0  0  0  0  0
    3.5709    3.5364    2.3574 C   0  0  0  0  0  0  0  0  0  0  0  0
   -0.5945   -1.3831    1.5935 H   0  0  0  0  0  0  0  0  0  0  0  0
   -0.2281   -1.7823   -0.0873 H   0  0  0  0  0  0  0  0  0  0  0  0
   -0.3776   -0.0922    0.3967 H   0  0  0  0  0  0  0  0  0  0  0  0
    1.8112   -2.0405    1.3098 H   0  0  0  0  0  0  0  0  0  0  0  0
    2.0172   -0.6945    0.1456 H   0  0  0  0  0  0  0  0  0  0  0  0
    1.3362    1.5559    3.9369 H   0  0  0  0  0  0  0  0  0  0  0  0
    3.0659    1.2831    3.7170 H   0  0  0  0  0  0  0  0  0  0  0  0
    0.3416    3.6839    3.2924 H   0  0  0  0  0  0  0  0  0  0  0  0
    1.3659    4.9807    2.6588 H   0  0  0  0  0  0  0  0  0  0  0  0
    1.0206    3.5628    1.6571 H   0  0  0  0  0  0  0  0  0  0  0  0
    3.5506    3.2493    4.9975 H   0  0  0  0  0  0  0  0  0  0  0  0
    2.8395    4.8050    4.5525 H   0  0  0  0  0  0  0  0  0  0  0  0
    1.8183    3.5296    5.2274 H   0  0  0  0  0  0  0  0  0  0  0  0
    4.4633    3.0479    2.7443 H   0  0  0  0  0  0  0  0  0  0  0  0
    3.3848    3.1899    1.3423 H   0  0  0  0  0  0  0  0  0  0  0  0
    3.7405    4.6110    2.3352 H   0  0  0  0  0  0  0  0  0  0  0  0
  1  2  1  0  0  0  0
  2  3  1  0  0  0  0
  3  4  4  0  0  0  0
  4  5  2  0  0  0  0
  4  6  1  0  0  0  0
  6  7  1  0  0  0  0
  7  8  1  0  0  0  0
  7  9  1  0  0  0  0
  7 10  1  0  0  0  0
  1 11  1  0  0  0  0
  1 12  1  0  0  0  0
  1 13  1  0  0  0  0
  2 14  1  0  0  0  0
  2 15  1  0  0  0  0
  6 16  1  0  0  0  0
  6 17  1  0  0  0  0
  8 18  1  0  0  0  0
  8 19  1  0  0  0  0
  8 20  1  0  0  0  0
  9 21  1  0  0  0  0
  9 22  1  0  0  0  0
  9 23  1  0  0  0  0
 10 24  1  0  0  0  0
 10 25  1  0  0  0  0
 10 26  1  0  0  0  0
M  CHG  1   1   1
M  END
