39

C         -0.02013       -1.24037        0.30830
O         -0.46673       -2.09962       -0.73203
C          0.22980       -2.08785       -1.90714
C         -0.38704       -2.77834       -2.95428
C          0.19909       -2.83160       -4.21905
C          1.42162       -2.20405       -4.44158
C          2.06105       -1.54094       -3.38898
C          1.46173       -1.46837       -2.12312
C          3.36101       -0.88565       -3.66335
O          3.52818       -0.28686       -4.72613
C          4.46398       -0.96462       -2.61724
N          4.89369        0.38298       -2.20003
C          5.09587        0.81826       -0.90669
C          5.46032        2.13403       -0.98429
N          5.47610        2.48386       -2.33099
C          5.18242        1.38545       -3.05346
C          5.76231        3.80089       -2.91769
C          5.48228        4.03469       -4.26422
C          5.74443        5.29387       -4.81019
C          6.28035        6.30557       -4.01453
C          6.55524        6.06412       -2.66933
C          6.29513        4.80881       -2.11433
H         -0.74138       -1.30207        1.12874
H          0.01775       -0.19827       -0.02656
H          0.95234       -1.56516        0.69213
H         -1.34623       -3.26600       -2.78645
H         -0.30455       -3.35652       -5.02819
H          1.86707       -2.23805       -5.43442
H          1.93972       -0.91367       -1.32512
H          4.15610       -1.53787       -1.73887
H          5.32592       -1.47405       -3.06169
H          4.94572        0.13857       -0.08517
H          5.68550        2.86295       -0.22584
H          5.18573        1.30398       -4.13330
H          5.03913        3.29034       -4.91412
H          5.52390        5.49274       -5.85778
H          6.48166        7.28603       -4.44355
H          6.97517        6.85824       -2.05430
H          6.53719        4.65835       -1.07009
