27

C          0.98231        0.80547        1.59555
O          0.58031       -0.17141        0.63788
C          1.07841       -1.46801        0.96365
C          0.53821       -2.50970       -0.03033
N          1.05456       -2.36588       -1.49024
C          2.58475       -2.38420       -1.61243
C          3.22937       -3.62964       -1.02680
C          0.43440       -3.49525       -2.31791
C          0.55431       -1.04206       -2.09417
H          0.58302        0.55799        2.58366
H          0.58013        1.77389        1.28671
H          2.07363        0.87408        1.63395
H          2.17240       -1.45605        0.98056
H          0.72652       -1.73820        1.96644
H          0.80133       -3.51918        0.30220
H         -0.55469       -2.43913       -0.08808
H          2.82133       -2.30490       -2.68018
H          2.96907       -1.48704       -1.11592
H          2.89029       -4.54223       -1.52407
H          4.31511       -3.57385       -1.16067
H          3.04258       -3.72513        0.04612
H         -0.65121       -3.35701       -2.33021
H          0.83687       -3.44530       -3.33388
H          0.68058       -4.45285       -1.85241
H         -0.51380       -0.94096       -1.88234
H          1.12840       -0.21388       -1.67376
H          0.72288       -1.07779       -3.17540
