43

C          1.47765       -0.88905       -0.73463
O          0.62741       -1.42711        0.28374
C          1.25320       -2.19006        1.22069
O          2.44782       -2.45575        1.25095
C          0.26598       -2.62563        2.29083
N          0.68643       -2.14591        3.62414
C          1.32303       -2.89085        4.55357
C          1.80704       -4.29643        4.38522
N          1.37201       -2.13690        5.67705
C          1.06273       -0.81401        5.36964
C          0.59120       -0.82639        4.05619
C          0.12973        0.32407        3.42033
C          0.17908        1.50506        4.17221
C          0.66171        1.52017        5.49400
C          1.11193        0.35409        6.12779
C          1.70206       -2.64670        7.01901
C          0.71160       -3.71025        7.46279
O          0.91033       -4.91044        7.30063
C         -0.55989       -3.26126        8.06558
C         -1.46916       -2.50558        7.31800
C         -2.67333       -2.10096        7.89638
C         -2.96399       -2.46095        9.21209
C         -2.06622       -3.23143        9.95234
C         -0.86150       -3.64221        9.37563
Br        -4.59716       -1.91350        9.98801
H          0.96957       -0.02384       -1.17014
H          1.62920       -1.63878       -1.51543
H          2.43614       -0.55096       -0.32865
H         -0.73357       -2.22739        2.08479
H          0.18788       -3.71632        2.28262
H          0.94573       -4.95134        4.51935
H          2.22461       -4.38656        3.38196
H          2.58293       -4.48734        5.12604
H         -0.24366        0.31463        2.40364
H         -0.16314        2.43848        3.72295
H          0.68416        2.46578        6.03784
H          1.48068        0.37185        7.14574
H          2.71047       -3.07266        6.99895
H          1.71233       -1.83656        7.75376
H         -1.28059       -2.25478        6.27971
H         -3.38678       -1.52196        7.31371
H         -2.30308       -3.52560       10.97293
H         -0.17558       -4.26211        9.94979
