 xtb: 6.7.1 (edcfbbe)
          12202402073D

 59 62  0     0  0            999 V2000
   -1.3684   -0.4179   -0.4324 Cl  0  0  0  0  0  0  0  0  0  0  0  0
    0.2586   -0.2646    0.1511 C   0  0  0  0  0  0  0  0  0  0  0  0
    0.8846   -1.3928    0.6597 C   0  0  0  0  0  0  0  0  0  0  0  0
    2.1807   -1.3060    1.1346 C   0  0  0  0  0  0  0  0  0  0  0  0
    2.8514   -0.0946    1.1014 C   0  0  0  0  0  0  0  0  0  0  0  0
    2.2238    1.0243    0.5858 C   0  0  0  0  0  0  0  0  0  0  0  0
    0.9216    0.9589    0.1013 C   0  0  0  0  0  0  0  0  0  0  0  0
    0.2761    2.1971   -0.4745 C   0  0  0  0  0  0  0  0  0  0  0  0
    0.2548    3.2858    0.4749 N   0  0  0  0  0  0  0  0  0  0  0  0
    0.9787    4.4372    0.3745 C   0  0  0  0  0  0  0  0  0  0  0  0
    0.6546    5.2057    1.4419 C   0  0  0  0  0  0  0  0  0  0  0  0
   -0.2591    4.5118    2.1857 N   0  0  0  0  0  0  0  0  0  0  0  0
   -0.4971    3.3446    1.5796 C   0  0  0  0  0  0  0  0  0  0  0  0
   -1.3679    2.2458    2.0354 C   0  0  0  0  0  0  0  0  0  0  0  0
   -0.9348    5.0947    3.3216 C   0  0  0  0  0  0  0  0  0  0  0  0
   -1.8845    6.2297    2.9034 C   0  0  0  0  0  0  0  0  0  0  0  0
   -3.3253    5.8232    2.4949 C   0  0  0  0  0  0  0  0  0  0  0  0
   -3.8566    4.7829    3.4683 C   0  0  0  0  0  0  0  0  0  0  0  0
   -3.8629    5.0763    4.8313 C   0  0  0  0  0  0  0  0  0  0  0  0
   -4.3300    4.1571    5.7520 C   0  0  0  0  0  0  0  0  0  0  0  0
   -4.7985    2.9234    5.3297 C   0  0  0  0  0  0  0  0  0  0  0  0
   -4.8005    2.6227    3.9799 C   0  0  0  0  0  0  0  0  0  0  0  0
   -4.3338    3.5450    3.0556 C   0  0  0  0  0  0  0  0  0  0  0  0
   -4.2041    7.0751    2.4966 C   0  0  0  0  0  0  0  0  0  0  0  0
   -3.7710    8.2247    1.8419 C   0  0  0  0  0  0  0  0  0  0  0  0
   -4.5615    9.3591    1.8047 C   0  0  0  0  0  0  0  0  0  0  0  0
   -5.8060    9.3633    2.4111 C   0  0  0  0  0  0  0  0  0  0  0  0
   -6.2576    8.2183    3.0419 C   0  0  0  0  0  0  0  0  0  0  0  0
   -5.4671    7.0816    3.0792 C   0  0  0  0  0  0  0  0  0  0  0  0
   -3.3337    5.2809    1.0526 C   0  0  0  0  0  0  0  0  0  0  0  0
   -2.3369    4.8658    0.4906 O   0  0  0  0  0  0  0  0  0  0  0  0
   -4.5374    5.2927    0.4602 N   0  0  0  0  0  0  0  0  0  0  0  0
    0.3563   -2.3327    0.6801 H   0  0  0  0  0  0  0  0  0  0  0  0
    2.6655   -2.1861    1.5260 H   0  0  0  0  0  0  0  0  0  0  0  0
    3.8633   -0.0237    1.4673 H   0  0  0  0  0  0  0  0  0  0  0  0
    2.7518    1.9661    0.5488 H   0  0  0  0  0  0  0  0  0  0  0  0
    0.8377    2.5323   -1.3498 H   0  0  0  0  0  0  0  0  0  0  0  0
   -0.7478    1.9733   -0.7830 H   0  0  0  0  0  0  0  0  0  0  0  0
    1.6486    4.6277   -0.4383 H   0  0  0  0  0  0  0  0  0  0  0  0
    1.0032    6.1768    1.7265 H   0  0  0  0  0  0  0  0  0  0  0  0
   -1.9949    1.9068    1.2123 H   0  0  0  0  0  0  0  0  0  0  0  0
   -0.7618    1.3975    2.3564 H   0  0  0  0  0  0  0  0  0  0  0  0
   -2.0108    2.5535    2.8538 H   0  0  0  0  0  0  0  0  0  0  0  0
   -1.4716    4.3203    3.8691 H   0  0  0  0  0  0  0  0  0  0  0  0
   -0.1661    5.5101    3.9790 H   0  0  0  0  0  0  0  0  0  0  0  0
   -1.9634    6.9235    3.7405 H   0  0  0  0  0  0  0  0  0  0  0  0
   -1.4250    6.7634    2.0716 H   0  0  0  0  0  0  0  0  0  0  0  0
   -3.5204    6.0408    5.1741 H   0  0  0  0  0  0  0  0  0  0  0  0
   -4.3337    4.4078    6.8016 H   0  0  0  0  0  0  0  0  0  0  0  0
   -5.1659    2.2068    6.0472 H   0  0  0  0  0  0  0  0  0  0  0  0
   -5.1702    1.6682    3.6372 H   0  0  0  0  0  0  0  0  0  0  0  0
   -4.3534    3.2897    2.0069 H   0  0  0  0  0  0  0  0  0  0  0  0
   -2.8140    8.2411    1.3432 H   0  0  0  0  0  0  0  0  0  0  0  0
   -4.2036   10.2413    1.2965 H   0  0  0  0  0  0  0  0  0  0  0  0
   -6.4210   10.2491    2.3847 H   0  0  0  0  0  0  0  0  0  0  0  0
   -7.2310    8.2027    3.5078 H   0  0  0  0  0  0  0  0  0  0  0  0
   -5.8440    6.1982    3.5726 H   0  0  0  0  0  0  0  0  0  0  0  0
   -5.3446    5.6873    0.9128 H   0  0  0  0  0  0  0  0  0  0  0  0
   -4.6151    4.9981   -0.5000 H   0  0  0  0  0  0  0  0  0  0  0  0
  1  2  1  0  0  0  0
  2  3  4  0  0  0  0
  3  4  4  0  0  0  0
  4  5  4  0  0  0  0
  5  6  4  0  0  0  0
  2  7  4  0  0  0  0
  6  7  4  0  0  0  0
  7  8  1  0  0  0  0
  8  9  1  0  0  0  0
  9 10  4  0  0  0  0
 10 11  2  0  0  0  0
 11 12  4  0  0  0  0
  9 13  4  0  0  0  0
 12 13  4  0  0  0  0
 13 14  1  0  0  0  0
 12 15  1  0  0  0  0
 15 16  1  0  0  0  0
 16 17  1  0  0  0  0
 17 18  1  0  0  0  0
 18 19  4  0  0  0  0
 19 20  4  0  0  0  0
 20 21  4  0  0  0  0
 21 22  4  0  0  0  0
 18 23  4  0  0  0  0
 22 23  4  0  0  0  0
 17 24  1  0  0  0  0
 24 25  4  0  0  0  0
 25 26  4  0  0  0  0
 26 27  4  0  0  0  0
 27 28  4  0  0  0  0
 24 29  4  0  0  0  0
 28 29  4  0  0  0  0
 17 30  1  0  0  0  0
 30 31  2  0  0  0  0
 30 32  4  0  0  0  0
  3 33  1  0  0  0  0
  4 34  1  0  0  0  0
  5 35  1  0  0  0  0
  6 36  1  0  0  0  0
  8 37  1  0  0  0  0
  8 38  1  0  0  0  0
 10 39  1  0  0  0  0
 11 40  1  0  0  0  0
 14 41  1  0  0  0  0
 14 42  1  0  0  0  0
 14 43  1  0  0  0  0
 15 44  1  0  0  0  0
 15 45  1  0  0  0  0
 16 46  1  0  0  0  0
 16 47  1  0  0  0  0
 19 48  1  0  0  0  0
 20 49  1  0  0  0  0
 21 50  1  0  0  0  0
 22 51  1  0  0  0  0
 23 52  1  0  0  0  0
 25 53  1  0  0  0  0
 26 54  1  0  0  0  0
 27 55  1  0  0  0  0
 28 56  1  0  0  0  0
 29 57  1  0  0  0  0
 32 58  1  0  0  0  0
 32 59  1  0  0  0  0
M  CHG  1   1   1
M  END
