 xtb: 6.7.1 (edcfbbe)
          12202402073D

 18 17  0     0  0            999 V2000
    1.1435   -0.0134   -0.1437 C   0  0  0  0  0  0  0  0  0  0  0  0
    0.7539    0.6714   -1.3442 O   0  0  0  0  0  0  0  0  0  0  0  0
    0.9088    1.9970   -1.3489 C   0  0  0  0  0  0  0  0  0  0  0  0
    1.3783    2.6637   -0.4890 O   0  0  0  0  0  0  0  0  0  0  0  0
    0.3659    2.5510   -2.6926 C   0  0  0  0  0  0  0  0  0  0  0  0
    0.7772    1.6386   -3.7978 N   0  0  0  0  0  0  0  0  0  0  0  0
   -1.1707    2.6407   -2.5997 C   0  0  0  0  0  0  0  0  0  0  0  0
   -1.4317    3.5308   -1.5598 O   0  0  0  0  0  0  0  0  0  0  0  0
    0.7598   -1.0254   -0.2352 H   0  0  0  0  0  0  0  0  0  0  0  0
    0.7182    0.4862    0.7258 H   0  0  0  0  0  0  0  0  0  0  0  0
    2.2300   -0.0197   -0.0565 H   0  0  0  0  0  0  0  0  0  0  0  0
    0.7641    3.5590   -2.8344 H   0  0  0  0  0  0  0  0  0  0  0  0
    0.6189    0.6708   -3.4676 H   0  0  0  0  0  0  0  0  0  0  0  0
    0.2289    1.8117   -4.6511 H   0  0  0  0  0  0  0  0  0  0  0  0
    1.7758    1.7508   -4.0161 H   0  0  0  0  0  0  0  0  0  0  0  0
   -1.5734    3.0092   -3.5573 H   0  0  0  0  0  0  0  0  0  0  0  0
   -1.5889    1.6422   -2.3962 H   0  0  0  0  0  0  0  0  0  0  0  0
   -2.3794    3.6674   -1.4475 H   0  0  0  0  0  0  0  0  0  0  0  0
  1  2  1  0  0  0  0
  2  3  1  0  0  0  0
  3  4  2  0  0  0  0
  3  5  1  0  0  0  0
  5  6  1  0  0  0  0
  5  7  1  0  0  0  0
  7  8  1  0  0  0  0
  1  9  1  0  0  0  0
  1 10  1  0  0  0  0
  1 11  1  0  0  0  0
  5 12  1  0  0  0  0
  6 13  1  0  0  0  0
  6 14  1  0  0  0  0
  6 15  1  0  0  0  0
  7 16  1  0  0  0  0
  7 17  1  0  0  0  0
  8 18  1  0  0  0  0
M  CHG  1   1   1
M  END
