 xtb: 6.7.1 (edcfbbe)
          12202402073D

 32 33  0     0  0            999 V2000
    2.6644   -0.8947    1.9926 N   0  0  0  0  0  0  0  0  0  0  0  0
    3.1646   -0.4211    1.0827 C   0  0  0  0  0  0  0  0  0  0  0  0
    3.8200    0.0897   -0.0991 C   0  0  0  0  0  0  0  0  0  0  0  0
    4.8100   -0.9569   -0.6422 C   0  0  0  0  0  0  0  0  0  0  0  0
    4.1176   -2.1921   -0.9270 N   0  0  0  0  0  0  0  0  0  0  0  0
    3.8739   -3.1942   -0.0339 C   0  0  0  0  0  0  0  0  0  0  0  0
    3.0711   -4.1001   -0.6523 C   0  0  0  0  0  0  0  0  0  0  0  0
    2.8435   -3.6449   -1.9193 N   0  0  0  0  0  0  0  0  0  0  0  0
    3.4730   -2.4790   -2.0571 C   0  0  0  0  0  0  0  0  0  0  0  0
    1.8587   -4.1226   -2.8414 C   0  0  0  0  0  0  0  0  0  0  0  0
    0.7911   -2.9966   -3.0074 C   0  0  0  0  0  0  0  0  0  0  0  0
    1.0640   -1.8938   -2.5881 O   0  0  0  0  0  0  0  0  0  0  0  0
   -0.4555   -3.3499   -3.6704 C   0  0  0  0  0  0  0  0  0  0  0  0
   -1.4682   -2.3804   -3.6897 C   0  0  0  0  0  0  0  0  0  0  0  0
   -2.6755   -2.6416   -4.3034 C   0  0  0  0  0  0  0  0  0  0  0  0
   -2.8890   -3.8691   -4.9130 C   0  0  0  0  0  0  0  0  0  0  0  0
   -1.8904   -4.8340   -4.9075 C   0  0  0  0  0  0  0  0  0  0  0  0
   -0.6809   -4.5850   -4.2906 C   0  0  0  0  0  0  0  0  0  0  0  0
    3.0561    0.3227   -0.8464 H   0  0  0  0  0  0  0  0  0  0  0  0
    4.3549    1.0072    0.1539 H   0  0  0  0  0  0  0  0  0  0  0  0
    5.2743   -0.5858   -1.5583 H   0  0  0  0  0  0  0  0  0  0  0  0
    5.5877   -1.1573    0.0987 H   0  0  0  0  0  0  0  0  0  0  0  0
    4.2667   -3.1909    0.9622 H   0  0  0  0  0  0  0  0  0  0  0  0
    2.6604   -5.0186   -0.2862 H   0  0  0  0  0  0  0  0  0  0  0  0
    3.4992   -1.8852   -2.9495 H   0  0  0  0  0  0  0  0  0  0  0  0
    2.3016   -4.3153   -3.8228 H   0  0  0  0  0  0  0  0  0  0  0  0
    1.4092   -5.0365   -2.4547 H   0  0  0  0  0  0  0  0  0  0  0  0
   -1.2829   -1.4317   -3.2091 H   0  0  0  0  0  0  0  0  0  0  0  0
   -3.4506   -1.8908   -4.3085 H   0  0  0  0  0  0  0  0  0  0  0  0
   -3.8324   -4.0753   -5.3944 H   0  0  0  0  0  0  0  0  0  0  0  0
   -2.0601   -5.7849   -5.3870 H   0  0  0  0  0  0  0  0  0  0  0  0
    0.0829   -5.3459   -4.3093 H   0  0  0  0  0  0  0  0  0  0  0  0
  1  2  3  0  0  0  0
  2  3  1  0  0  0  0
  3  4  1  0  0  0  0
  4  5  1  0  0  0  0
  5  6  4  0  0  0  0
  6  7  2  0  0  0  0
  7  8  4  0  0  0  0
  5  9  4  0  0  0  0
  8  9  4  0  0  0  0
  8 10  1  0  0  0  0
 10 11  1  0  0  0  0
 11 12  2  0  0  0  0
 11 13  1  0  0  0  0
 13 14  4  0  0  0  0
 14 15  4  0  0  0  0
 15 16  4  0  0  0  0
 16 17  4  0  0  0  0
 13 18  4  0  0  0  0
 17 18  4  0  0  0  0
  3 19  1  0  0  0  0
  3 20  1  0  0  0  0
  4 21  1  0  0  0  0
  4 22  1  0  0  0  0
  6 23  1  0  0  0  0
  7 24  1  0  0  0  0
  9 25  1  0  0  0  0
 10 26  1  0  0  0  0
 10 27  1  0  0  0  0
 14 28  1  0  0  0  0
 15 29  1  0  0  0  0
 16 30  1  0  0  0  0
 17 31  1  0  0  0  0
 18 32  1  0  0  0  0
M  CHG  1   1   1
M  END
