32

N          0.97082        0.02136       -0.09323
C          2.23178        0.02136       -0.09323
C          3.75178        0.02136       -0.09323
C          4.28748       -1.36982        0.21329
N          3.82386       -2.45536       -0.67670
C          3.69971       -3.78618       -0.29209
C          3.18091       -4.46564       -1.35736
N          2.99772       -3.53890       -2.36515
C          3.45067       -2.33771       -1.96446
C          2.36428       -3.77586       -3.67496
C          1.25553       -2.76144       -3.90782
O          1.53966       -1.57314       -4.08577
C         -0.16946       -3.18937       -3.85418
C         -1.12893       -2.36630       -4.45871
C         -2.47960       -2.71666       -4.42337
C         -2.88009       -3.88507       -3.77900
C         -1.93342       -4.70109       -3.16260
C         -0.57974       -4.35484       -3.19368
H          4.10256        0.36050       -1.07377
H          4.11202        0.73574        0.65465
H          5.38233       -1.36283        0.15814
H          4.01094       -1.64793        1.23835
H          3.98602       -4.07669        0.70479
H          2.90273       -5.49291       -1.51989
H          3.47542       -1.43392       -2.56459
H          3.12604       -3.63886       -4.45083
H          2.01536       -4.80797       -3.74804
H         -0.83650       -1.44328       -4.95732
H         -3.22188       -2.07366       -4.89221
H         -3.93446       -4.15323       -3.74757
H         -2.25801       -5.60315       -2.64731
H          0.11423       -5.00309       -2.67019
