31

C          2.66646       -0.16574       -0.47917
C          1.17733       -0.08749       -0.30397
C          0.43611       -1.25570       -0.09919
C         -0.94858       -1.19388        0.06861
C         -1.61298        0.03825        0.02369
C         -0.87652        1.20721       -0.20019
C          0.51028        1.14038       -0.36857
C         -3.07855        0.05349        0.29343
O         -3.61034       -0.92529        0.82114
C         -3.87507        1.32852        0.07823
N         -3.85348        2.16320        1.29303
C         -3.83619        3.54746        1.33873
C         -3.76448        3.89701        2.65797
N         -3.76370        2.71819        3.38263
C         -3.87927        1.67483        2.54654
C         -3.65308        2.59059        4.83057
H          3.10791       -0.79597        0.30008
H          2.90799       -0.58385       -1.46097
H          3.12916        0.82363       -0.40047
H          0.93624       -2.22244       -0.05914
H         -1.49846       -2.11781        0.24421
H         -1.33541        2.18958       -0.22817
H          1.07405        2.05653       -0.53915
H         -3.50277        1.89203       -0.78172
H         -4.91687        1.06300       -0.13325
H         -3.86260        4.10952        0.42077
H         -3.70974        4.83771        3.17876
H         -3.94629        0.63119        2.83884
H         -4.43768        1.92126        5.19263
H         -2.67085        2.17381        5.07005
H         -3.76097        3.56886        5.30594
