 xtb: 6.7.1 (edcfbbe)
          12202402073D

 50 49  0     0  0            999 V2000
    0.7775    1.5162    0.0888 C   0  0  0  0  0  0  0  0  0  0  0  0
    0.1904    0.3250    0.8502 C   0  0  0  0  0  0  0  0  0  0  0  0
    0.6647    0.2978    2.3075 C   0  0  0  0  0  0  0  0  0  0  0  0
    0.2953    1.5362    3.1268 C   0  0  0  0  0  0  0  0  0  0  0  0
   -1.2094    1.7843    3.2120 C   0  0  0  0  0  0  0  0  0  0  0  0
   -1.5703    2.9595    4.1225 C   0  0  0  0  0  0  0  0  0  0  0  0
   -1.0108    4.3153    3.6825 C   0  0  0  0  0  0  0  0  0  0  0  0
   -1.3718    4.7363    2.2566 C   0  0  0  0  0  0  0  0  0  0  0  0
   -2.8727    4.8626    2.0245 C   0  0  0  0  0  0  0  0  0  0  0  0
    0.2877    1.6185   -1.6646 P   0  0  0  0  0  0  0  0  0  0  0  0
    1.2223    0.4482   -2.7164 C   0  0  0  0  0  0  0  0  0  0  0  0
    0.8473   -1.0221   -2.5673 C   0  0  0  0  0  0  0  0  0  0  0  0
   -1.4965    1.2884   -1.8726 C   0  0  0  0  0  0  0  0  0  0  0  0
   -2.3884    2.3447   -1.2277 C   0  0  0  0  0  0  0  0  0  0  0  0
    0.7088    3.2744   -2.3316 C   0  0  0  0  0  0  0  0  0  0  0  0
    0.6044    4.4280   -1.3382 C   0  0  0  0  0  0  0  0  0  0  0  0
    1.8715    1.4899    0.1197 H   0  0  0  0  0  0  0  0  0  0  0  0
    0.4509    2.4465    0.5603 H   0  0  0  0  0  0  0  0  0  0  0  0
   -0.8988    0.3704    0.8313 H   0  0  0  0  0  0  0  0  0  0  0  0
    0.4925   -0.6103    0.3773 H   0  0  0  0  0  0  0  0  0  0  0  0
    0.2273   -0.5819    2.7827 H   0  0  0  0  0  0  0  0  0  0  0  0
    1.7499    0.1752    2.3262 H   0  0  0  0  0  0  0  0  0  0  0  0
    0.6786    1.3926    4.1382 H   0  0  0  0  0  0  0  0  0  0  0  0
    0.7977    2.4149    2.7201 H   0  0  0  0  0  0  0  0  0  0  0  0
   -1.6230    1.9671    2.2184 H   0  0  0  0  0  0  0  0  0  0  0  0
   -1.6912    0.8856    3.6034 H   0  0  0  0  0  0  0  0  0  0  0  0
   -2.6574    3.0251    4.1866 H   0  0  0  0  0  0  0  0  0  0  0  0
   -1.2000    2.7522    5.1283 H   0  0  0  0  0  0  0  0  0  0  0  0
   -1.3887    5.0729    4.3713 H   0  0  0  0  0  0  0  0  0  0  0  0
    0.0770    4.3089    3.7807 H   0  0  0  0  0  0  0  0  0  0  0  0
   -0.9014    5.7024    2.0588 H   0  0  0  0  0  0  0  0  0  0  0  0
   -0.9502    4.0225    1.5425 H   0  0  0  0  0  0  0  0  0  0  0  0
   -3.3064    5.5482    2.7472 H   0  0  0  0  0  0  0  0  0  0  0  0
   -3.0748    5.2489    1.0272 H   0  0  0  0  0  0  0  0  0  0  0  0
   -3.3712    3.9018    2.1256 H   0  0  0  0  0  0  0  0  0  0  0  0
    1.0562    0.7723   -3.7495 H   0  0  0  0  0  0  0  0  0  0  0  0
    2.2827    0.5953   -2.4883 H   0  0  0  0  0  0  0  0  0  0  0  0
   -0.2065   -1.1884   -2.7756 H   0  0  0  0  0  0  0  0  0  0  0  0
    1.4241   -1.6104   -3.2768 H   0  0  0  0  0  0  0  0  0  0  0  0
    1.0721   -1.3937   -1.5716 H   0  0  0  0  0  0  0  0  0  0  0  0
   -1.6864    1.2327   -2.9491 H   0  0  0  0  0  0  0  0  0  0  0  0
   -1.6984    0.3031   -1.4438 H   0  0  0  0  0  0  0  0  0  0  0  0
   -2.2719    3.3097   -1.7144 H   0  0  0  0  0  0  0  0  0  0  0  0
   -3.4301    2.0484   -1.3243 H   0  0  0  0  0  0  0  0  0  0  0  0
   -2.1712    2.4587   -0.1681 H   0  0  0  0  0  0  0  0  0  0  0  0
    1.7309    3.2116   -2.7169 H   0  0  0  0  0  0  0  0  0  0  0  0
    0.0441    3.4428   -3.1847 H   0  0  0  0  0  0  0  0  0  0  0  0
    1.3518    4.3413   -0.5535 H   0  0  0  0  0  0  0  0  0  0  0  0
    0.7846    5.3643   -1.8611 H   0  0  0  0  0  0  0  0  0  0  0  0
   -0.3800    4.4868   -0.8817 H   0  0  0  0  0  0  0  0  0  0  0  0
  1  2  1  0  0  0  0
  2  3  1  0  0  0  0
  3  4  1  0  0  0  0
  4  5  1  0  0  0  0
  5  6  1  0  0  0  0
  6  7  1  0  0  0  0
  7  8  1  0  0  0  0
  8  9  1  0  0  0  0
  1 10  1  0  0  0  0
 10 11  1  0  0  0  0
 11 12  1  0  0  0  0
 10 13  1  0  0  0  0
 13 14  1  0  0  0  0
 10 15  1  0  0  0  0
 15 16  1  0  0  0  0
  1 17  1  0  0  0  0
  1 18  1  0  0  0  0
  2 19  1  0  0  0  0
  2 20  1  0  0  0  0
  3 21  1  0  0  0  0
  3 22  1  0  0  0  0
  4 23  1  0  0  0  0
  4 24  1  0  0  0  0
  5 25  1  0  0  0  0
  5 26  1  0  0  0  0
  6 27  1  0  0  0  0
  6 28  1  0  0  0  0
  7 29  1  0  0  0  0
  7 30  1  0  0  0  0
  8 31  1  0  0  0  0
  8 32  1  0  0  0  0
  9 33  1  0  0  0  0
  9 34  1  0  0  0  0
  9 35  1  0  0  0  0
 11 36  1  0  0  0  0
 11 37  1  0  0  0  0
 12 38  1  0  0  0  0
 12 39  1  0  0  0  0
 12 40  1  0  0  0  0
 13 41  1  0  0  0  0
 13 42  1  0  0  0  0
 14 43  1  0  0  0  0
 14 44  1  0  0  0  0
 14 45  1  0  0  0  0
 15 46  1  0  0  0  0
 15 47  1  0  0  0  0
 16 48  1  0  0  0  0
 16 49  1  0  0  0  0
 16 50  1  0  0  0  0
M  CHG  1   1   1
M  END
