18

C          1.08372       -0.01462       -0.03402
O          0.49605        0.65690       -1.15683
C          0.99875        1.90392       -1.38273
O          1.96512        2.38694       -0.81170
C          0.35018        2.52806       -2.61637
N          0.79845        1.80532       -3.86659
C         -1.18398        2.53533       -2.52549
O         -1.60234        3.68373       -1.80201
H          0.59827       -0.98881        0.06766
H          0.91336        0.55815        0.88249
H          2.15302       -0.17369       -0.20207
H          0.72814        3.55209       -2.71565
H          0.53459        0.81078       -3.83526
H          0.40991        2.23189       -4.71674
H          1.82557        1.84750       -3.94020
H         -1.62917        2.60633       -3.52340
H         -1.58621        1.64585       -2.03228
H         -2.57413        3.65647       -1.70054
