 xtb: 6.7.1 (edcfbbe)
          12202402073D

 53 53  0     0  0            999 V2000
    0.2009   -1.5253    2.4984 C   0  0  0  0  0  0  0  0  0  0  0  0
    1.0251   -0.3084    2.9017 C   0  0  0  0  0  0  0  0  0  0  0  0
    0.6086    0.9707    2.1718 C   0  0  0  0  0  0  0  0  0  0  0  0
   -0.8428    1.3979    2.4136 C   0  0  0  0  0  0  0  0  0  0  0  0
   -1.2115    1.6441    3.8804 C   0  0  0  0  0  0  0  0  0  0  0  0
   -0.3314    2.6655    4.5893 C   0  0  0  0  0  0  0  0  0  0  0  0
   -0.2901    3.9719    3.8721 N   0  0  0  0  0  0  0  0  0  0  0  0
    0.6654    4.9013    4.4888 C   0  0  0  0  0  0  0  0  0  0  0  0
    0.0118    5.9764    4.9280 C   0  0  0  0  0  0  0  0  0  0  0  0
   -1.2968    5.9728    4.5596 N   0  0  0  0  0  0  0  0  0  0  0  0
   -1.5820    4.7217    3.8864 C   0  0  0  0  0  0  0  0  0  0  0  0
   -2.3252    6.7887    5.1541 C   0  0  0  0  0  0  0  0  0  0  0  0
   -3.4046    6.0205    5.9219 C   0  0  0  0  0  0  0  0  0  0  0  0
   -2.7358    4.6394    6.9770 P   0  0  0  0  0  0  0  0  0  0  0  0
   -1.2759    4.5187    6.9599 O   0  0  0  0  0  0  0  0  0  0  0  0
   -3.4340    4.8115    8.4001 O   0  0  0  0  0  0  0  0  0  0  0  0
   -2.8202    5.6231    9.4081 C   0  0  0  0  0  0  0  0  0  0  0  0
   -1.7816    4.8408   10.1893 C   0  0  0  0  0  0  0  0  0  0  0  0
   -3.4121    3.3194    6.3916 O   0  0  0  0  0  0  0  0  0  0  0  0
   -4.7838    2.9715    6.6223 C   0  0  0  0  0  0  0  0  0  0  0  0
   -4.9119    2.0198    7.7963 C   0  0  0  0  0  0  0  0  0  0  0  0
   -0.8307   -1.4374    2.8299 H   0  0  0  0  0  0  0  0  0  0  0  0
    0.6199   -2.4222    2.9463 H   0  0  0  0  0  0  0  0  0  0  0  0
    0.2086   -1.6502    1.4182 H   0  0  0  0  0  0  0  0  0  0  0  0
    0.9616   -0.1664    3.9824 H   0  0  0  0  0  0  0  0  0  0  0  0
    2.0727   -0.5005    2.6626 H   0  0  0  0  0  0  0  0  0  0  0  0
    1.2968    1.7737    2.4525 H   0  0  0  0  0  0  0  0  0  0  0  0
    0.7316    0.8090    1.0989 H   0  0  0  0  0  0  0  0  0  0  0  0
   -1.0542    2.2910    1.8151 H   0  0  0  0  0  0  0  0  0  0  0  0
   -1.5009    0.6170    2.0332 H   0  0  0  0  0  0  0  0  0  0  0  0
   -2.2585    1.9474    3.9364 H   0  0  0  0  0  0  0  0  0  0  0  0
   -1.1254    0.7101    4.4345 H   0  0  0  0  0  0  0  0  0  0  0  0
   -0.6915    2.8661    5.6006 H   0  0  0  0  0  0  0  0  0  0  0  0
    0.6948    2.3012    4.6504 H   0  0  0  0  0  0  0  0  0  0  0  0
   -0.0161    3.7574    2.9073 H   0  0  0  0  0  0  0  0  0  0  0  0
    1.6908    4.6199    4.5829 H   0  0  0  0  0  0  0  0  0  0  0  0
    0.4270    6.8080    5.4626 H   0  0  0  0  0  0  0  0  0  0  0  0
   -2.3333    4.1390    4.4296 H   0  0  0  0  0  0  0  0  0  0  0  0
   -1.9297    4.9088    2.8621 H   0  0  0  0  0  0  0  0  0  0  0  0
   -1.8202    7.4829    5.8270 H   0  0  0  0  0  0  0  0  0  0  0  0
   -2.8137    7.3758    4.3644 H   0  0  0  0  0  0  0  0  0  0  0  0
   -3.9422    6.7237    6.5566 H   0  0  0  0  0  0  0  0  0  0  0  0
   -4.1302    5.5901    5.2296 H   0  0  0  0  0  0  0  0  0  0  0  0
   -2.3632    6.5027    8.9450 H   0  0  0  0  0  0  0  0  0  0  0  0
   -3.6416    5.9429   10.0551 H   0  0  0  0  0  0  0  0  0  0  0  0
   -0.9864    4.5186    9.5228 H   0  0  0  0  0  0  0  0  0  0  0  0
   -1.3634    5.4697   10.9699 H   0  0  0  0  0  0  0  0  0  0  0  0
   -2.2350    3.9649   10.6453 H   0  0  0  0  0  0  0  0  0  0  0  0
   -5.3702    3.8758    6.7993 H   0  0  0  0  0  0  0  0  0  0  0  0
   -5.1233    2.4937    5.6980 H   0  0  0  0  0  0  0  0  0  0  0  0
   -4.5757    2.5075    8.7066 H   0  0  0  0  0  0  0  0  0  0  0  0
   -5.9509    1.7243    7.9124 H   0  0  0  0  0  0  0  0  0  0  0  0
   -4.3065    1.1330    7.6287 H   0  0  0  0  0  0  0  0  0  0  0  0
  1  2  1  0  0  0  0
  2  3  1  0  0  0  0
  3  4  1  0  0  0  0
  4  5  1  0  0  0  0
  5  6  1  0  0  0  0
  6  7  1  0  0  0  0
  7  8  1  0  0  0  0
  8  9  2  0  0  0  0
  9 10  1  0  0  0  0
  7 11  1  0  0  0  0
 10 11  1  0  0  0  0
 10 12  1  0  0  0  0
 12 13  1  0  0  0  0
 13 14  1  0  0  0  0
 14 15  2  0  0  0  0
 14 16  1  0  0  0  0
 16 17  1  0  0  0  0
 17 18  1  0  0  0  0
 14 19  1  0  0  0  0
 19 20  1  0  0  0  0
 20 21  1  0  0  0  0
  1 22  1  0  0  0  0
  1 23  1  0  0  0  0
  1 24  1  0  0  0  0
  2 25  1  0  0  0  0
  2 26  1  0  0  0  0
  3 27  1  0  0  0  0
  3 28  1  0  0  0  0
  4 29  1  0  0  0  0
  4 30  1  0  0  0  0
  5 31  1  0  0  0  0
  5 32  1  0  0  0  0
  6 33  1  0  0  0  0
  6 34  1  0  0  0  0
  7 35  1  0  0  0  0
  8 36  1  0  0  0  0
  9 37  1  0  0  0  0
 11 38  1  0  0  0  0
 11 39  1  0  0  0  0
 12 40  1  0  0  0  0
 12 41  1  0  0  0  0
 13 42  1  0  0  0  0
 13 43  1  0  0  0  0
 17 44  1  0  0  0  0
 17 45  1  0  0  0  0
 18 46  1  0  0  0  0
 18 47  1  0  0  0  0
 18 48  1  0  0  0  0
 20 49  1  0  0  0  0
 20 50  1  0  0  0  0
 21 51  1  0  0  0  0
 21 52  1  0  0  0  0
 21 53  1  0  0  0  0
M  CHG  1   1   1
M  END
