57

C          1.04339        0.49997        0.20850
C          0.38775       -0.88641        0.17353
C          1.15777       -2.01699        0.86249
C          0.43818       -2.73810        2.01189
C         -1.01482       -3.13103        1.72483
C         -1.44722       -4.46720        2.33925
C         -1.11030       -4.69719        3.81438
C         -1.69318       -3.68927        4.80579
C         -3.22032       -3.58766        4.83645
C         -3.97899       -4.90100        5.05630
C         -3.58104       -5.70947        6.29371
C         -3.78188       -4.96446        7.60334
N          0.82458        1.33615        1.50299
C          1.75432        0.84494        2.61774
C          1.73695        1.77076        3.82896
C          2.09313        3.20206        3.45881
C          1.20758        3.72289        2.33861
C          1.20129        2.79192        1.13269
C         -0.64282        1.26894        1.92846
H          0.60592        1.09378       -0.60426
H          2.12390        0.44221        0.03123
H         -0.66028       -0.84538        0.47497
H          0.34851       -1.15931       -0.89153
H          1.37440       -2.77922        0.10093
H          2.13793       -1.67356        1.21154
H          1.03248       -3.62907        2.24607
H          0.45734       -2.11189        2.90984
H         -1.67762       -2.33568        2.08793
H         -1.18131       -3.20223        0.64302
H         -2.52611       -4.58747        2.18415
H         -0.97270       -5.27170        1.76240
H         -1.44276       -5.70670        4.08354
H         -0.02159       -4.71197        3.94160
H         -1.33390       -3.95220        5.80836
H         -1.28372       -2.69365        4.59880
H         -3.50050       -2.87625        5.62325
H         -3.56935       -3.14102        3.89755
H         -5.05025       -4.66973        5.11615
H         -3.86025       -5.53877        4.17240
H         -4.18997       -6.62165        6.31662
H         -2.53910       -6.03811        6.21901
H         -4.81389       -4.61431        7.70287
H         -3.56689       -5.62803        8.44745
H         -3.11330       -4.10236        7.68117
H          2.76480        0.78573        2.19766
H          1.43121       -0.15461        2.90982
H          2.45491        1.40251        4.57130
H          0.75549        1.74517        4.31549
H          1.99651        3.84867        4.33850
H          3.14278        3.24744        3.14456
H          0.18966        3.88042        2.71067
H          1.56718        4.71013        2.02469
H          0.48238        3.13747        0.38046
H          2.19885        2.75593        0.67847
H         -1.26376        1.49146        1.05590
H         -0.84971        0.26842        2.31677
H         -0.83568        1.99745        2.71680
