50

C          1.07292        0.90358       -0.15702
C          0.14719        0.22584        0.84671
C          0.61291        0.40325        2.29636
C          0.29562        1.77726        2.91243
C         -1.20938        2.04149        3.04394
C         -1.55956        3.12047        4.07377
C         -1.04823        4.53023        3.76670
C         -1.57825        5.16198        2.47798
C         -3.09418        5.27003        2.42033
P          0.37980        1.40183       -1.71175
C          1.22024        0.50347       -3.01142
C          0.92065       -0.98099       -3.07090
C         -1.35211        1.08184       -1.90645
C         -2.32006        2.05422       -1.26639
C          0.74664        3.11665       -2.02339
C          0.53392        4.07507       -0.86828
H          1.91154        0.22326       -0.35207
H          1.53948        1.77604        0.30578
H         -0.87766        0.58209        0.74563
H          0.11636       -0.84543        0.61161
H          0.13805       -0.36973        2.91312
H          1.69370        0.22548        2.35840
H          0.75575        1.80813        3.90800
H          0.76267        2.57611        2.32642
H         -1.62783        2.31159        2.06956
H         -1.71169        1.11656        3.35216
H         -2.64909        3.14733        4.19347
H         -1.16144        2.81568        5.05006
H         -1.31870        5.18038        4.60844
H          0.04749        4.52296        3.72955
H         -1.15483        6.17024        2.39047
H         -1.22280        4.59987        1.61098
H         -3.48858        5.77954        3.30489
H         -3.39637        5.84234        1.53700
H         -3.56235        4.28374        2.34892
H          0.94688        0.95370       -3.97260
H          2.29991        0.64690       -2.89333
H         -0.14100       -1.15632       -3.26830
H          1.49678       -1.45554       -3.87115
H          1.17054       -1.46935       -2.12511
H         -1.57224        1.06468       -2.98046
H         -1.56972        0.07235       -1.54032
H         -2.22932        3.04574       -1.71863
H         -3.35095        1.71487       -1.40727
H         -2.13741        2.15660       -0.19568
H          1.79329        3.19669       -2.33817
H          0.14145        3.44624       -2.87496
H          1.26584        3.90436       -0.07377
H          0.64578        5.11083       -1.20174
H         -0.45917        3.95634       -0.43423
