 xtb: 6.7.1 (edcfbbe)
          12202402073D

 28 28  0     0  0            999 V2000
   -0.5469   -2.3415   -6.5306 C   0  0  0  0  0  0  0  0  0  0  0  0
   -0.8741   -1.3557   -5.4644 C   0  0  0  0  0  0  0  0  0  0  0  0
    0.0044   -0.8464   -4.6058 C   0  0  0  0  0  0  0  0  0  0  0  0
   -0.3608    0.1782   -3.5490 C   0  0  0  0  0  0  0  0  0  0  0  0
   -0.1127   -0.4023   -2.2144 N   0  0  0  0  0  0  0  0  0  0  0  0
    0.5392    0.2931   -1.2802 C   0  0  0  0  0  0  0  0  0  0  0  0
    0.7617   -0.2321   -0.0230 C   0  0  0  0  0  0  0  0  0  0  0  0
    0.2922   -1.5050    0.2725 C   0  0  0  0  0  0  0  0  0  0  0  0
   -0.3915   -2.2081   -0.7117 C   0  0  0  0  0  0  0  0  0  0  0  0
   -0.5762   -1.6269   -1.9484 C   0  0  0  0  0  0  0  0  0  0  0  0
   -1.7961    0.6973   -3.5777 C   0  0  0  0  0  0  0  0  0  0  0  0
    1.4599   -1.2320   -4.6097 C   0  0  0  0  0  0  0  0  0  0  0  0
    0.3313   -2.9322   -6.2887 H   0  0  0  0  0  0  0  0  0  0  0  0
   -0.3543   -1.8160   -7.4662 H   0  0  0  0  0  0  0  0  0  0  0  0
   -1.3903   -3.0062   -6.6998 H   0  0  0  0  0  0  0  0  0  0  0  0
   -1.9051   -1.0360   -5.4439 H   0  0  0  0  0  0  0  0  0  0  0  0
    0.3183    1.0321   -3.6540 H   0  0  0  0  0  0  0  0  0  0  0  0
    0.8872    1.2807   -1.5470 H   0  0  0  0  0  0  0  0  0  0  0  0
    1.2967    0.3495    0.7103 H   0  0  0  0  0  0  0  0  0  0  0  0
    0.4560   -1.9392    1.2460 H   0  0  0  0  0  0  0  0  0  0  0  0
   -0.7748   -3.1982   -0.5245 H   0  0  0  0  0  0  0  0  0  0  0  0
   -1.0860   -2.1363   -2.7539 H   0  0  0  0  0  0  0  0  0  0  0  0
   -1.9406    1.4417   -2.7974 H   0  0  0  0  0  0  0  0  0  0  0  0
   -1.9896    1.1709   -4.5354 H   0  0  0  0  0  0  0  0  0  0  0  0
   -2.5153   -0.1036   -3.4281 H   0  0  0  0  0  0  0  0  0  0  0  0
    1.5885   -2.2851   -4.3610 H   0  0  0  0  0  0  0  0  0  0  0  0
    1.8873   -1.0757   -5.5976 H   0  0  0  0  0  0  0  0  0  0  0  0
    2.0348   -0.6429   -3.8987 H   0  0  0  0  0  0  0  0  0  0  0  0
  1  2  1  0  0  0  0
  2  3  2  0  0  0  0
  3  4  1  0  0  0  0
  4  5  1  0  0  0  0
  5  6  4  0  0  0  0
  6  7  4  0  0  0  0
  7  8  4  0  0  0  0
  8  9  4  0  0  0  0
  5 10  4  0  0  0  0
  9 10  4  0  0  0  0
  4 11  1  0  0  0  0
  3 12  1  0  0  0  0
  1 13  1  0  0  0  0
  1 14  1  0  0  0  0
  1 15  1  0  0  0  0
  2 16  1  0  0  0  0
  4 17  1  0  0  0  0
  6 18  1  0  0  0  0
  7 19  1  0  0  0  0
  8 20  1  0  0  0  0
  9 21  1  0  0  0  0
 10 22  1  0  0  0  0
 11 23  1  0  0  0  0
 11 24  1  0  0  0  0
 11 25  1  0  0  0  0
 12 26  1  0  0  0  0
 12 27  1  0  0  0  0
 12 28  1  0  0  0  0
M  CHG  1   1   1
M  END
