 xtb: 6.7.1 (edcfbbe)
          12202402073D

 31 32  0     0  0            999 V2000
    2.3654   -1.2620   -1.8898 C   0  0  0  0  0  0  0  0  0  0  0  0
    1.2804   -0.6650   -1.0622 C   0  0  0  0  0  0  0  0  0  0  0  0
    1.1442   -0.9755    0.2895 C   0  0  0  0  0  0  0  0  0  0  0  0
    0.1320   -0.4207    1.0400 C   0  0  0  0  0  0  0  0  0  0  0  0
   -0.7836    0.4715    0.4619 C   0  0  0  0  0  0  0  0  0  0  0  0
   -0.6506    0.7816   -0.8986 C   0  0  0  0  0  0  0  0  0  0  0  0
    0.3642    0.2187   -1.6385 C   0  0  0  0  0  0  0  0  0  0  0  0
   -1.8242    1.0097    1.3189 C   0  0  0  0  0  0  0  0  0  0  0  0
   -1.9979    0.7057    2.4788 O   0  0  0  0  0  0  0  0  0  0  0  0
   -2.8074    2.0422    0.6831 C   0  0  0  0  0  0  0  0  0  0  0  0
   -3.5809    2.6236    1.7386 N   0  0  0  0  0  0  0  0  0  0  0  0
   -3.5455    3.9194    2.1619 C   0  0  0  0  0  0  0  0  0  0  0  0
   -4.2549    3.9855    3.3204 C   0  0  0  0  0  0  0  0  0  0  0  0
   -4.7007    2.7273    3.5968 N   0  0  0  0  0  0  0  0  0  0  0  0
   -4.2737    1.9173    2.6328 C   0  0  0  0  0  0  0  0  0  0  0  0
   -5.4792    2.3548    4.7465 C   0  0  0  0  0  0  0  0  0  0  0  0
    3.0776   -1.8059   -1.2761 H   0  0  0  0  0  0  0  0  0  0  0  0
    1.9385   -1.9517   -2.6184 H   0  0  0  0  0  0  0  0  0  0  0  0
    2.8920   -0.4881   -2.4459 H   0  0  0  0  0  0  0  0  0  0  0  0
    1.8395   -1.6583    0.7523 H   0  0  0  0  0  0  0  0  0  0  0  0
    0.0260   -0.6590    2.0875 H   0  0  0  0  0  0  0  0  0  0  0  0
   -1.3398    1.4525   -1.3865 H   0  0  0  0  0  0  0  0  0  0  0  0
    0.4580    0.4626   -2.6866 H   0  0  0  0  0  0  0  0  0  0  0  0
   -2.2641    2.8277    0.1591 H   0  0  0  0  0  0  0  0  0  0  0  0
   -3.4505    1.5062   -0.0203 H   0  0  0  0  0  0  0  0  0  0  0  0
   -3.0356    4.6902    1.6212 H   0  0  0  0  0  0  0  0  0  0  0  0
   -4.4656    4.8232    3.9533 H   0  0  0  0  0  0  0  0  0  0  0  0
   -4.4739    0.8658    2.5737 H   0  0  0  0  0  0  0  0  0  0  0  0
   -5.7122    1.2934    4.7059 H   0  0  0  0  0  0  0  0  0  0  0  0
   -4.9184    2.5593    5.6593 H   0  0  0  0  0  0  0  0  0  0  0  0
   -6.4075    2.9264    4.7733 H   0  0  0  0  0  0  0  0  0  0  0  0
  1  2  1  0  0  0  0
  2  3  4  0  0  0  0
  3  4  4  0  0  0  0
  4  5  4  0  0  0  0
  5  6  4  0  0  0  0
  2  7  4  0  0  0  0
  6  7  4  0  0  0  0
  5  8  1  0  0  0  0
  8  9  2  0  0  0  0
  8 10  1  0  0  0  0
 10 11  1  0  0  0  0
 11 12  4  0  0  0  0
 12 13  2  0  0  0  0
 13 14  4  0  0  0  0
 11 15  4  0  0  0  0
 14 15  4  0  0  0  0
 14 16  1  0  0  0  0
  1 17  1  0  0  0  0
  1 18  1  0  0  0  0
  1 19  1  0  0  0  0
  3 20  1  0  0  0  0
  4 21  1  0  0  0  0
  6 22  1  0  0  0  0
  7 23  1  0  0  0  0
 10 24  1  0  0  0  0
 10 25  1  0  0  0  0
 12 26  1  0  0  0  0
 13 27  1  0  0  0  0
 15 28  1  0  0  0  0
 16 29  1  0  0  0  0
 16 30  1  0  0  0  0
 16 31  1  0  0  0  0
M  CHG  1   1   1
M  END
