39

C          2.72125       -0.01160       -0.54307
C          1.22870        0.00972       -0.38081
C          0.52261       -1.19435       -0.28636
C         -0.86154       -1.18946       -0.10587
C         -1.55822        0.02230       -0.02281
C         -0.85771        1.22913       -0.12546
C          0.52895        1.21909       -0.30571
C         -3.01759       -0.02687        0.26109
O         -3.50768       -1.04171        0.77030
C         -3.86839        1.22116        0.10466
N         -3.88436        2.02944        1.33327
C         -3.87398        1.57132        2.58387
N         -3.97957        0.30086        2.96473
N         -3.71751        2.58815        3.42336
C         -3.84684        3.78000        2.71782
C         -3.97251        3.41993        1.37227
C         -4.13613        4.36666        0.36330
C         -4.16412        5.70662        0.77343
C         -4.02787        6.06934        2.12669
C         -3.86368        5.10895        3.13401
C         -3.47857        2.46749        4.85143
H          3.18409       -0.51280        0.31342
H          2.99414       -0.54036       -1.46161
H          3.13328        1.00113       -0.60115
H          1.05143       -2.14490       -0.34138
H         -1.38432       -2.14084       -0.01891
H         -1.34743        2.19398       -0.03813
H          1.06592        2.16424       -0.37284
H         -3.51691        1.81011       -0.74715
H         -4.89832        0.91876       -0.11632
H         -4.06274       -0.45721        2.28505
H         -3.97721        0.03406        3.93573
H         -4.24698        4.08941       -0.67709
H         -4.29760        6.49072        0.02711
H         -4.05574        7.12548        2.39751
H         -3.76480        5.38715        4.17528
H         -4.40254        2.15021        5.34138
H         -2.69517        1.72288        5.02154
H         -3.14536        3.41641        5.27728
