41

C          2.67576        0.13616       -0.15080
C          1.17438        0.11905       -0.14621
C          0.49555       -1.10223       -0.10784
C         -0.89950       -1.13379       -0.11207
C         -1.63862        0.05647       -0.15699
C         -0.96229        1.27927       -0.21362
C          0.43703        1.30677       -0.20923
C         -3.12592       -0.04769       -0.10767
O         -3.65296       -1.15984       -0.06685
C         -3.97895        1.20360       -0.03323
N         -3.82382        1.96781        1.22615
C         -3.92954        3.34889        1.30377
C         -3.74223        3.69132        2.60806
N         -3.49522        2.51636        3.29988
C         -3.70190        1.45637        2.47902
C         -3.83878        0.02042        2.88300
C         -3.11668        2.42885        4.70649
C         -2.10081        1.55356        5.07919
C         -1.72222        1.49762        6.42030
C         -2.36207        2.30717        7.36210
C         -3.37366        3.18595        6.96708
C         -3.74926        3.26041        5.62610
H          3.06271       -0.45067        0.68890
H          3.05336       -0.28430       -1.08810
H          3.06512        1.15439       -0.05024
H          1.05080       -2.03880       -0.07679
H         -1.40049       -2.10099       -0.08015
H         -1.48269        2.22932       -0.26468
H          0.95400        2.26416       -0.25849
H         -3.75542        1.84674       -0.89110
H         -5.03458        0.91729       -0.10723
H         -4.11613        3.91871        0.40891
H         -3.69854        4.63620        3.12274
H         -4.61309       -0.42679        2.25984
H         -2.86842       -0.45529        2.74049
H         -4.15452       -0.01850        3.92566
H         -1.56693        0.95108        4.35304
H         -0.92065        0.83263        6.73722
H         -2.06662        2.25735        8.40944
H         -3.86806        3.80854        7.71077
H         -4.54935        3.93196        5.33553
