 xtb: 6.7.1 (edcfbbe)
          12202402073D

 41 43  0     0  0            999 V2000
    2.5648    0.2695   -0.1898 C   0  0  0  0  0  0  0  0  0  0  0  0
    1.0767    0.1968   -0.1545 C   0  0  0  0  0  0  0  0  0  0  0  0
    0.4332   -1.0347   -0.0316 C   0  0  0  0  0  0  0  0  0  0  0  0
   -0.9404   -1.1123   -0.0196 C   0  0  0  0  0  0  0  0  0  0  0  0
   -1.7257    0.0449   -0.1216 C   0  0  0  0  0  0  0  0  0  0  0  0
   -1.0822    1.2788   -0.2541 C   0  0  0  0  0  0  0  0  0  0  0  0
    0.2956    1.3450   -0.2687 C   0  0  0  0  0  0  0  0  0  0  0  0
   -3.1781   -0.1286   -0.0978 C   0  0  0  0  0  0  0  0  0  0  0  0
   -3.7300   -1.1994   -0.1708 O   0  0  0  0  0  0  0  0  0  0  0  0
   -4.0523    1.1434    0.0577 C   0  0  0  0  0  0  0  0  0  0  0  0
   -3.7216    1.9164    1.2275 N   0  0  0  0  0  0  0  0  0  0  0  0
   -3.5319    3.2701    1.2597 C   0  0  0  0  0  0  0  0  0  0  0  0
   -3.2589    3.6105    2.5435 C   0  0  0  0  0  0  0  0  0  0  0  0
   -3.2801    2.4582    3.2810 N   0  0  0  0  0  0  0  0  0  0  0  0
   -3.5698    1.4327    2.4678 C   0  0  0  0  0  0  0  0  0  0  0  0
   -3.7513    0.0267    2.8744 C   0  0  0  0  0  0  0  0  0  0  0  0
   -3.0379    2.4005    4.6811 C   0  0  0  0  0  0  0  0  0  0  0  0
   -2.0883    1.5239    5.1897 C   0  0  0  0  0  0  0  0  0  0  0  0
   -1.8569    1.4960    6.5541 C   0  0  0  0  0  0  0  0  0  0  0  0
   -2.5659    2.3342    7.3994 C   0  0  0  0  0  0  0  0  0  0  0  0
   -3.5073    3.2103    6.8831 C   0  0  0  0  0  0  0  0  0  0  0  0
   -3.7463    3.2503    5.5209 C   0  0  0  0  0  0  0  0  0  0  0  0
    3.0001   -0.3614    0.5825 H   0  0  0  0  0  0  0  0  0  0  0  0
    2.9260   -0.0970   -1.1508 H   0  0  0  0  0  0  0  0  0  0  0  0
    2.9163    1.2892   -0.0598 H   0  0  0  0  0  0  0  0  0  0  0  0
    1.0226   -1.9356    0.0470 H   0  0  0  0  0  0  0  0  0  0  0  0
   -1.4420   -2.0643    0.0677 H   0  0  0  0  0  0  0  0  0  0  0  0
   -1.6445    2.1915   -0.3779 H   0  0  0  0  0  0  0  0  0  0  0  0
    0.7790    2.3041   -0.3820 H   0  0  0  0  0  0  0  0  0  0  0  0
   -3.9399    1.7708   -0.8285 H   0  0  0  0  0  0  0  0  0  0  0  0
   -5.0937    0.8078    0.1137 H   0  0  0  0  0  0  0  0  0  0  0  0
   -3.6140    3.8837    0.3863 H   0  0  0  0  0  0  0  0  0  0  0  0
   -3.0407    4.5623    2.9819 H   0  0  0  0  0  0  0  0  0  0  0  0
   -4.5844   -0.4226    2.3356 H   0  0  0  0  0  0  0  0  0  0  0  0
   -2.8645   -0.5671    2.6486 H   0  0  0  0  0  0  0  0  0  0  0  0
   -3.9408   -0.0334    3.9439 H   0  0  0  0  0  0  0  0  0  0  0  0
   -1.5227    0.8897    4.5246 H   0  0  0  0  0  0  0  0  0  0  0  0
   -1.1178    0.8205    6.9544 H   0  0  0  0  0  0  0  0  0  0  0  0
   -2.3819    2.3075    8.4615 H   0  0  0  0  0  0  0  0  0  0  0  0
   -4.0585    3.8641    7.5400 H   0  0  0  0  0  0  0  0  0  0  0  0
   -4.4850    3.9228    5.1121 H   0  0  0  0  0  0  0  0  0  0  0  0
  1  2  1  0  0  0  0
  2  3  4  0  0  0  0
  3  4  4  0  0  0  0
  4  5  4  0  0  0  0
  5  6  4  0  0  0  0
  2  7  4  0  0  0  0
  6  7  4  0  0  0  0
  5  8  1  0  0  0  0
  8  9  2  0  0  0  0
  8 10  1  0  0  0  0
 10 11  1  0  0  0  0
 11 12  1  0  0  0  0
 12 13  2  0  0  0  0
 13 14  1  0  0  0  0
 11 15  4  0  0  0  0
 14 15  4  0  0  0  0
 15 16  1  0  0  0  0
 14 17  1  0  0  0  0
 17 18  4  0  0  0  0
 18 19  4  0  0  0  0
 19 20  4  0  0  0  0
 20 21  4  0  0  0  0
 17 22  4  0  0  0  0
 21 22  4  0  0  0  0
  1 23  1  0  0  0  0
  1 24  1  0  0  0  0
  1 25  1  0  0  0  0
  3 26  1  0  0  0  0
  4 27  1  0  0  0  0
  6 28  1  0  0  0  0
  7 29  1  0  0  0  0
 10 30  1  0  0  0  0
 10 31  1  0  0  0  0
 12 32  1  0  0  0  0
 13 33  1  0  0  0  0
 16 34  1  0  0  0  0
 16 35  1  0  0  0  0
 16 36  1  0  0  0  0
 18 37  1  0  0  0  0
 19 38  1  0  0  0  0
 20 39  1  0  0  0  0
 21 40  1  0  0  0  0
 22 41  1  0  0  0  0
M  CHG  1   1   1
M  END
