45

C          1.29692       -0.27574        0.17145
C          0.97468        1.20966        0.13610
C          1.36962        1.89194       -1.17647
C          0.68811        1.35316       -2.44000
C         -0.84351        1.31424       -2.40560
C         -1.52729        2.65243       -2.11269
C         -1.32472        3.73905       -3.16923
C         -1.80480        3.46072       -4.59783
N         -3.31484        3.32655       -4.80086
C         -4.16892        4.28384       -3.92808
C         -5.67230        4.10379       -4.27299
N         -5.92293        3.09977       -5.33942
C         -5.34772        1.80611       -4.88908
C         -3.82770        1.87594       -4.57883
C         -5.17124        3.52879       -6.54421
C         -3.64772        3.67647       -6.29650
H          0.71261       -0.83189       -0.56725
H          1.06064       -0.68683        1.15834
H          2.35946       -0.45154       -0.02288
H         -0.09173        1.35589        0.33876
H          1.51274        1.70176        0.95547
H          1.16664        2.96571       -1.08590
H          2.45560        1.80384       -1.30800
H          1.01696        1.95632       -3.29486
H          1.05384        0.33819       -2.63838
H         -1.20169        0.91466       -3.36094
H         -1.16516        0.59078       -1.64702
H         -2.59471        2.47856       -1.95366
H         -1.16682        3.04123       -1.15309
H         -1.77693        4.66899       -2.80459
H         -0.25100        3.96000       -3.22673
H         -1.48951        4.31147       -5.21450
H         -1.33593        2.56575       -5.02057
H         -3.82577        5.30240       -4.13719
H         -3.99238        4.02812       -2.88034
H         -6.22049        3.81649       -3.36658
H         -6.09608        5.07121       -4.57051
H         -5.88533        1.45771       -3.99819
H         -5.52811        1.03853       -5.65248
H         -3.63921        1.60515       -3.54017
H         -3.25468        1.22467       -5.24718
H         -5.34159        2.81377       -7.35893
H         -5.57560        4.48173       -6.90845
H         -3.32054        4.70855       -6.46446
H         -3.06817        2.98823       -6.92103
