28

C          2.25025       -0.92019        0.39761
N          1.46187       -0.09303        1.30233
C          1.54923        1.28141        1.42871
C          0.62871        1.64946        2.36917
N         -0.00019        0.48925        2.79094
C          0.52809       -0.56540        2.14320
C         -1.08654        0.39118        3.78540
C         -2.27340       -0.38612        3.22716
O         -2.11251       -1.44546        2.61868
C         -3.65380        0.10835        3.46719
C         -3.96311        1.47385        3.49484
C         -5.28170        1.88441        3.70961
C         -6.29065        0.93738        3.88847
C         -5.98277       -0.42047        3.84294
C         -4.67171       -0.84084        3.62783
Cl        -7.22816       -1.58645        4.05292
H          2.23439       -0.47806       -0.60229
H          1.82859       -1.92779        0.35231
H          3.27760       -0.96904        0.76769
H          2.25943        1.82110        0.82595
H          0.33863        2.59618        2.79157
H          0.25854       -1.60877        2.27090
H         -0.69844       -0.15274        4.65354
H         -1.35806        1.39634        4.11245
H         -3.21557        2.24197        3.32026
H         -5.53169        2.94405        3.72609
H         -7.31608        1.26330        4.05153
H         -4.44849       -1.90548        3.58458
