 xtb: 6.7.1 (edcfbbe)
          12202402073D

 21 21  0     0  0            999 V2000
    0.7252    0.1742   -1.1454 Cl  0  0  0  0  0  0  0  0  0  0  0  0
    2.3249   -0.2236   -0.4083 C   0  0  0  0  0  0  0  0  0  0  0  0
    3.4162    0.5585   -1.1294 C   0  0  0  0  0  0  0  0  0  0  0  0
    3.0337    1.9769   -1.2500 N   0  0  0  0  0  0  0  0  0  0  0  0
    3.7833    2.7475   -2.2703 C   0  0  0  0  0  0  0  0  0  0  0  0
    3.4732    4.2165   -1.9606 C   0  0  0  0  0  0  0  0  0  0  0  0
    2.9147    4.2151   -0.5247 C   0  0  0  0  0  0  0  0  0  0  0  0
    3.1589    2.7960   -0.0219 C   0  0  0  0  0  0  0  0  0  0  0  0
    2.2653    0.0238    0.6504 H   0  0  0  0  0  0  0  0  0  0  0  0
    2.4846   -1.2949   -0.5205 H   0  0  0  0  0  0  0  0  0  0  0  0
    4.3616    0.4737   -0.5889 H   0  0  0  0  0  0  0  0  0  0  0  0
    3.5458    0.1567   -2.1368 H   0  0  0  0  0  0  0  0  0  0  0  0
    2.0274    1.9445   -1.5042 H   0  0  0  0  0  0  0  0  0  0  0  0
    3.4846    2.4486   -3.2739 H   0  0  0  0  0  0  0  0  0  0  0  0
    4.8463    2.5352   -2.1397 H   0  0  0  0  0  0  0  0  0  0  0  0
    4.3731    4.8208   -2.0397 H   0  0  0  0  0  0  0  0  0  0  0  0
    2.7441    4.6229   -2.6574 H   0  0  0  0  0  0  0  0  0  0  0  0
    3.4050    4.9500    0.1075 H   0  0  0  0  0  0  0  0  0  0  0  0
    1.8488    4.4390   -0.5270 H   0  0  0  0  0  0  0  0  0  0  0  0
    4.1735    2.6837    0.3647 H   0  0  0  0  0  0  0  0  0  0  0  0
    2.4441    2.4826    0.7358 H   0  0  0  0  0  0  0  0  0  0  0  0
  1  2  1  0  0  0  0
  2  3  1  0  0  0  0
  3  4  1  0  0  0  0
  4  5  1  0  0  0  0
  5  6  1  0  0  0  0
  6  7  1  0  0  0  0
  4  8  1  0  0  0  0
  7  8  1  0  0  0  0
  2  9  1  0  0  0  0
  2 10  1  0  0  0  0
  3 11  1  0  0  0  0
  3 12  1  0  0  0  0
  4 13  1  0  0  0  0
  5 14  1  0  0  0  0
  5 15  1  0  0  0  0
  6 16  1  0  0  0  0
  6 17  1  0  0  0  0
  7 18  1  0  0  0  0
  7 19  1  0  0  0  0
  8 20  1  0  0  0  0
  8 21  1  0  0  0  0
M  CHG  1   1   1
M  END
