 xtb: 6.7.1 (edcfbbe)
          12202402083D

 39 39  0     0  0            999 V2000
    0.0537    0.5841    1.7617 C   0  0  0  0  0  0  0  0  0  0  0  0
    1.5323    0.4141    1.4578 C   0  0  0  0  0  0  0  0  0  0  0  0
    2.2261    1.6799    1.4523 O   0  0  0  0  0  0  0  0  0  0  0  0
    2.1454    2.4204    0.3751 C   0  0  0  0  0  0  0  0  0  0  0  0
    1.5403    2.1394   -0.6278 O   0  0  0  0  0  0  0  0  0  0  0  0
    3.0283    3.6854    0.5166 C   0  0  0  0  0  0  0  0  0  0  0  0
    2.7418    4.7050   -0.5582 N   0  0  0  0  0  0  0  0  0  0  0  0
    1.2780    5.0239   -0.7475 C   0  0  0  0  0  0  0  0  0  0  0  0
    0.5390    5.5197    0.4661 C   0  0  0  0  0  0  0  0  0  0  0  0
    0.5347    6.8711    0.7997 C   0  0  0  0  0  0  0  0  0  0  0  0
   -0.1747    7.3186    1.9011 C   0  0  0  0  0  0  0  0  0  0  0  0
   -0.8989    6.4253    2.6724 C   0  0  0  0  0  0  0  0  0  0  0  0
   -0.9273    5.0834    2.3292 C   0  0  0  0  0  0  0  0  0  0  0  0
   -0.2159    4.6343    1.2309 C   0  0  0  0  0  0  0  0  0  0  0  0
    3.4777    5.9500   -0.2693 C   0  0  0  0  0  0  0  0  0  0  0  0
    3.2392    4.1756   -1.8488 C   0  0  0  0  0  0  0  0  0  0  0  0
    3.0158    4.2248    1.9453 C   0  0  0  0  0  0  0  0  0  0  0  0
   -0.0835    1.1461    2.6820 H   0  0  0  0  0  0  0  0  0  0  0  0
   -0.3965   -0.3964    1.8805 H   0  0  0  0  0  0  0  0  0  0  0  0
   -0.4508    1.0949    0.9453 H   0  0  0  0  0  0  0  0  0  0  0  0
    2.0333   -0.1605    2.2375 H   0  0  0  0  0  0  0  0  0  0  0  0
    1.6728   -0.0661    0.4853 H   0  0  0  0  0  0  0  0  0  0  0  0
    4.0463    3.3234    0.3173 H   0  0  0  0  0  0  0  0  0  0  0  0
    1.2327    5.7851   -1.5294 H   0  0  0  0  0  0  0  0  0  0  0  0
    0.7967    4.1186   -1.1188 H   0  0  0  0  0  0  0  0  0  0  0  0
    1.0624    7.5861    0.1853 H   0  0  0  0  0  0  0  0  0  0  0  0
   -0.1709    8.3685    2.1482 H   0  0  0  0  0  0  0  0  0  0  0  0
   -1.4545    6.7764    3.5274 H   0  0  0  0  0  0  0  0  0  0  0  0
   -1.5121    4.3879    2.9104 H   0  0  0  0  0  0  0  0  0  0  0  0
   -0.2570    3.5911    0.9571 H   0  0  0  0  0  0  0  0  0  0  0  0
    4.5320    5.7346   -0.1052 H   0  0  0  0  0  0  0  0  0  0  0  0
    3.3919    6.6252   -1.1191 H   0  0  0  0  0  0  0  0  0  0  0  0
    3.0664    6.4402    0.6091 H   0  0  0  0  0  0  0  0  0  0  0  0
    4.3153    4.0181   -1.8012 H   0  0  0  0  0  0  0  0  0  0  0  0
    2.7469    3.2333   -2.0809 H   0  0  0  0  0  0  0  0  0  0  0  0
    3.0282    4.8850   -2.6464 H   0  0  0  0  0  0  0  0  0  0  0  0
    3.1523    3.3834    2.6194 H   0  0  0  0  0  0  0  0  0  0  0  0
    3.8345    4.9161    2.1198 H   0  0  0  0  0  0  0  0  0  0  0  0
    2.0762    4.7054    2.1966 H   0  0  0  0  0  0  0  0  0  0  0  0
  1  2  1  0  0  0  0
  2  3  1  0  0  0  0
  3  4  4  0  0  0  0
  4  5  2  0  0  0  0
  4  6  1  0  0  0  0
  6  7  1  0  0  0  0
  7  8  1  0  0  0  0
  8  9  1  0  0  0  0
  9 10  4  0  0  0  0
 10 11  4  0  0  0  0
 11 12  4  0  0  0  0
 12 13  4  0  0  0  0
  9 14  4  0  0  0  0
 13 14  4  0  0  0  0
  7 15  1  0  0  0  0
  7 16  1  0  0  0  0
  6 17  1  0  0  0  0
  1 18  1  0  0  0  0
  1 19  1  0  0  0  0
  1 20  1  0  0  0  0
  2 21  1  0  0  0  0
  2 22  1  0  0  0  0
  6 23  1  0  0  0  0
  8 24  1  0  0  0  0
  8 25  1  0  0  0  0
 10 26  1  0  0  0  0
 11 27  1  0  0  0  0
 12 28  1  0  0  0  0
 13 29  1  0  0  0  0
 14 30  1  0  0  0  0
 15 31  1  0  0  0  0
 15 32  1  0  0  0  0
 15 33  1  0  0  0  0
 16 34  1  0  0  0  0
 16 35  1  0  0  0  0
 16 36  1  0  0  0  0
 17 37  1  0  0  0  0
 17 38  1  0  0  0  0
 17 39  1  0  0  0  0
M  CHG  1   1   1
M  END
