33

C          1.43270        0.13805       -0.42841
C          0.87192       -0.98347       -1.29001
C          1.09579       -2.37767       -0.69761
C          0.38046       -2.64757        0.62405
N         -1.08647       -2.76094        0.41263
C         -1.61171       -3.94406        0.01412
C         -2.97890       -4.08385       -0.17801
C         -3.81581       -2.98983        0.03691
C         -3.26258       -1.78303        0.46021
C         -1.88865       -1.69597        0.64923
C         -5.27222       -3.16808       -0.18592
O         -5.78792       -4.26718       -0.28645
O         -5.87624       -1.96419       -0.30169
C         -7.28896       -2.00175       -0.56995
C         -7.54241       -2.20060       -2.05326
H          0.90453        0.21883        0.52555
H          1.32828        1.09716       -0.94582
H          2.49600       -0.02010       -0.22197
H         -0.19306       -0.80962       -1.47556
H          1.36600       -0.94349       -2.26851
H          0.78500       -3.12140       -1.44136
H          2.17228       -2.52264       -0.54451
H          0.71269       -3.60176        1.05024
H          0.56661       -1.87618        1.37709
H         -0.92635       -4.77180       -0.14946
H         -3.38844       -5.04117       -0.49900
H         -3.88738       -0.91267        0.65067
H         -1.41912       -0.77442        0.98257
H         -7.78087       -2.77542        0.03067
H         -7.69786       -1.03653       -0.25378
H         -7.16237       -3.16969       -2.39170
H         -8.61259       -2.15232       -2.27332
H         -7.02486       -1.43402       -2.63911
