 xtb: 6.7.1 (edcfbbe)
          12202402083D

 35 35  0     0  0            999 V2000
    2.2937   -0.4174    1.7673 F   0  0  0  0  0  0  0  0  0  0  0  0
    1.8377    0.0171    0.5541 C   0  0  0  0  0  0  0  0  0  0  0  0
    0.6157    0.9149    0.7764 C   0  0  0  0  0  0  0  0  0  0  0  0
    0.9830    2.0564    1.5800 N   0  0  0  0  0  0  0  0  0  0  0  0
    1.1316    2.0447    2.9354 C   0  0  0  0  0  0  0  0  0  0  0  0
    1.5931    3.2723    3.2988 C   0  0  0  0  0  0  0  0  0  0  0  0
    1.7109    4.0139    2.1624 N   0  0  0  0  0  0  0  0  0  0  0  0
    1.3453    3.2570    1.1328 C   0  0  0  0  0  0  0  0  0  0  0  0
    2.3088    5.3176    2.0354 C   0  0  0  0  0  0  0  0  0  0  0  0
    3.7373    5.1422    1.4835 C   0  0  0  0  0  0  0  0  0  0  0  0
    3.6551    4.3842    0.3218 O   0  0  0  0  0  0  0  0  0  0  0  0
    4.8324    4.1183   -0.8331 Si  0  0  0  0  0  0  0  0  0  0  0  0
    6.2664    3.1248   -0.0765 C   0  0  0  0  0  0  0  0  0  0  0  0
    3.8110    3.1005   -2.0712 C   0  0  0  0  0  0  0  0  0  0  0  0
    5.4376    5.7691   -1.5506 C   0  0  0  0  0  0  0  0  0  0  0  0
    2.6597    0.5636    0.0800 H   0  0  0  0  0  0  0  0  0  0  0  0
    1.5710   -0.8642   -0.0348 H   0  0  0  0  0  0  0  0  0  0  0  0
    0.2303    1.2496   -0.1873 H   0  0  0  0  0  0  0  0  0  0  0  0
   -0.1558    0.3483    1.3038 H   0  0  0  0  0  0  0  0  0  0  0  0
    0.9189    1.1801    3.5309 H   0  0  0  0  0  0  0  0  0  0  0  0
    1.8322    3.6580    4.2687 H   0  0  0  0  0  0  0  0  0  0  0  0
    1.3623    3.5679    0.1068 H   0  0  0  0  0  0  0  0  0  0  0  0
    1.7237    5.9097    1.3289 H   0  0  0  0  0  0  0  0  0  0  0  0
    2.3270    5.8116    3.0062 H   0  0  0  0  0  0  0  0  0  0  0  0
    4.1647    6.1294    1.2866 H   0  0  0  0  0  0  0  0  0  0  0  0
    4.3640    4.6304    2.2241 H   0  0  0  0  0  0  0  0  0  0  0  0
    5.9237    2.2128    0.4060 H   0  0  0  0  0  0  0  0  0  0  0  0
    6.9845    2.8360   -0.8365 H   0  0  0  0  0  0  0  0  0  0  0  0
    6.8065    3.7041    0.6680 H   0  0  0  0  0  0  0  0  0  0  0  0
    2.9454    3.6461   -2.4335 H   0  0  0  0  0  0  0  0  0  0  0  0
    4.4221    2.8607   -2.9332 H   0  0  0  0  0  0  0  0  0  0  0  0
    3.4651    2.1597   -1.6533 H   0  0  0  0  0  0  0  0  0  0  0  0
    4.6102    6.3940   -1.8765 H   0  0  0  0  0  0  0  0  0  0  0  0
    6.0144    6.3384   -0.8261 H   0  0  0  0  0  0  0  0  0  0  0  0
    6.0784    5.6093   -2.4112 H   0  0  0  0  0  0  0  0  0  0  0  0
  1  2  1  0  0  0  0
  2  3  1  0  0  0  0
  3  4  1  0  0  0  0
  4  5  4  0  0  0  0
  5  6  2  0  0  0  0
  6  7  4  0  0  0  0
  4  8  4  0  0  0  0
  7  8  4  0  0  0  0
  7  9  1  0  0  0  0
  9 10  1  0  0  0  0
 10 11  1  0  0  0  0
 11 12  1  0  0  0  0
 12 13  1  0  0  0  0
 12 14  1  0  0  0  0
 12 15  1  0  0  0  0
  2 16  1  0  0  0  0
  2 17  1  0  0  0  0
  3 18  1  0  0  0  0
  3 19  1  0  0  0  0
  5 20  1  0  0  0  0
  6 21  1  0  0  0  0
  8 22  1  0  0  0  0
  9 23  1  0  0  0  0
  9 24  1  0  0  0  0
 10 25  1  0  0  0  0
 10 26  1  0  0  0  0
 13 27  1  0  0  0  0
 13 28  1  0  0  0  0
 13 29  1  0  0  0  0
 14 30  1  0  0  0  0
 14 31  1  0  0  0  0
 14 32  1  0  0  0  0
 15 33  1  0  0  0  0
 15 34  1  0  0  0  0
 15 35  1  0  0  0  0
M  CHG  1   1   1
M  END
