29

C          0.12286       -0.85003        0.02456
O         -0.52619       -0.01345        0.97600
N          0.35198        0.61737        1.87150
C          1.71708        0.49406        1.99001
C          2.08190        1.32935        3.01234
N          0.92529        1.93844        3.48090
C         -0.12880        1.48167        2.77548
C          0.82839        2.93715        4.56301
C          0.09346        4.18590        4.09004
O         -0.95649        4.10009        3.45084
C          0.61972        5.53052        4.44551
C          1.99093        5.79584        4.54528
C          2.42918        7.08576        4.86564
C          1.50363        8.10733        5.07705
C          0.13901        7.85377        4.96409
C         -0.30356        6.56776        4.64255
Cl         2.05266        9.68831        5.46592
H         -0.64141       -1.26619       -0.63751
H          0.63001       -1.67893        0.52633
H          0.82282       -0.26921       -0.58305
H          2.27558       -0.16311        1.34880
H          3.02729        1.57013        3.46828
H         -1.17190        1.74908        2.90193
H          0.25364        2.49046        5.38169
H          1.83116        3.15249        4.93544
H          2.74568        5.04074        4.34903
H          3.49477        7.29570        4.93757
H         -0.58365        8.65260        5.11757
H         -1.37350        6.38665        4.54506
