 xtb: 6.7.1 (edcfbbe)
          12202402073D

 33 33  0     0  0            999 V2000
    1.3100    0.1455   -0.4638 C   0  0  0  0  0  0  0  0  0  0  0  0
    0.7721   -1.0376   -1.2607 C   0  0  0  0  0  0  0  0  0  0  0  0
    1.1015   -2.3912   -0.6329 C   0  0  0  0  0  0  0  0  0  0  0  0
    0.3782   -2.6590    0.6976 C   0  0  0  0  0  0  0  0  0  0  0  0
   -1.0510   -2.7844    0.4875 N   0  0  0  0  0  0  0  0  0  0  0  0
   -1.5619   -3.9674    0.1213 C   0  0  0  0  0  0  0  0  0  0  0  0
   -2.9025   -4.1091   -0.1552 C   0  0  0  0  0  0  0  0  0  0  0  0
   -3.7411   -2.9983   -0.0616 C   0  0  0  0  0  0  0  0  0  0  0  0
   -3.1897   -1.7763    0.3133 C   0  0  0  0  0  0  0  0  0  0  0  0
   -1.8382   -1.7062    0.5819 C   0  0  0  0  0  0  0  0  0  0  0  0
   -5.2109   -3.1832   -0.3625 C   0  0  0  0  0  0  0  0  0  0  0  0
   -5.6620   -4.2596   -0.6446 O   0  0  0  0  0  0  0  0  0  0  0  0
   -5.8726   -2.0486   -0.2583 O   0  0  0  0  0  0  0  0  0  0  0  0
   -7.2869   -2.0822   -0.5311 C   0  0  0  0  0  0  0  0  0  0  0  0
   -7.5639   -2.0385   -2.0249 C   0  0  0  0  0  0  0  0  0  0  0  0
    0.8667    0.2159    0.5272 H   0  0  0  0  0  0  0  0  0  0  0  0
    1.0973    1.0726   -0.9881 H   0  0  0  0  0  0  0  0  0  0  0  0
    2.3873    0.0648   -0.3476 H   0  0  0  0  0  0  0  0  0  0  0  0
   -0.3079   -0.9365   -1.4034 H   0  0  0  0  0  0  0  0  0  0  0  0
    1.2245   -1.0166   -2.2529 H   0  0  0  0  0  0  0  0  0  0  0  0
    0.8573   -3.1899   -1.3362 H   0  0  0  0  0  0  0  0  0  0  0  0
    2.1723   -2.4389   -0.4335 H   0  0  0  0  0  0  0  0  0  0  0  0
    0.7538   -3.5868    1.1323 H   0  0  0  0  0  0  0  0  0  0  0  0
    0.5702   -1.8429    1.3945 H   0  0  0  0  0  0  0  0  0  0  0  0
   -0.8802   -4.8031    0.0582 H   0  0  0  0  0  0  0  0  0  0  0  0
   -3.3199   -5.0635   -0.4405 H   0  0  0  0  0  0  0  0  0  0  0  0
   -3.8110   -0.8989    0.3966 H   0  0  0  0  0  0  0  0  0  0  0  0
   -1.3763   -0.7800    0.8905 H   0  0  0  0  0  0  0  0  0  0  0  0
   -7.7062   -2.9911   -0.0903 H   0  0  0  0  0  0  0  0  0  0  0  0
   -7.6836   -1.2003   -0.0265 H   0  0  0  0  0  0  0  0  0  0  0  0
   -7.1849   -2.9355   -2.5083 H   0  0  0  0  0  0  0  0  0  0  0  0
   -8.6361   -1.9850   -2.1855 H   0  0  0  0  0  0  0  0  0  0  0  0
   -7.0974   -1.1651   -2.4740 H   0  0  0  0  0  0  0  0  0  0  0  0
  1  2  1  0  0  0  0
  2  3  1  0  0  0  0
  3  4  1  0  0  0  0
  4  5  1  0  0  0  0
  5  6  4  0  0  0  0
  6  7  4  0  0  0  0
  7  8  4  0  0  0  0
  8  9  4  0  0  0  0
  5 10  4  0  0  0  0
  9 10  4  0  0  0  0
  8 11  1  0  0  0  0
 11 12  2  0  0  0  0
 11 13  1  0  0  0  0
 13 14  1  0  0  0  0
 14 15  1  0  0  0  0
  1 16  1  0  0  0  0
  1 17  1  0  0  0  0
  1 18  1  0  0  0  0
  2 19  1  0  0  0  0
  2 20  1  0  0  0  0
  3 21  1  0  0  0  0
  3 22  1  0  0  0  0
  4 23  1  0  0  0  0
  4 24  1  0  0  0  0
  6 25  1  0  0  0  0
  7 26  1  0  0  0  0
  9 27  1  0  0  0  0
 10 28  1  0  0  0  0
 14 29  1  0  0  0  0
 14 30  1  0  0  0  0
 15 31  1  0  0  0  0
 15 32  1  0  0  0  0
 15 33  1  0  0  0  0
M  CHG  1   1   1
M  END
