46

C          1.21898        0.64298        0.24934
O          0.40656        1.05028       -0.85869
C          1.08881        1.48031       -1.95393
O          2.30695        1.55055       -2.05595
C          0.12671        1.77010       -3.09928
N          0.43838        0.89301       -4.24850
C          0.21100       -0.43875       -4.26466
C         -0.61963       -1.20301       -3.28095
N          0.91960       -0.94139       -5.29992
C          1.39787        0.09810       -6.09468
C          1.11521        1.27795       -5.40119
C          1.51984        2.52618       -5.86984
C          2.21203        2.53420       -7.08873
C          2.48571        1.34723       -7.79248
C          2.08633        0.09590       -7.30651
C          1.18187       -2.37480       -5.52129
C          1.90783       -2.99958       -4.34149
O          1.31489       -3.53596       -3.40962
C          3.38092       -2.91968       -4.31945
C          4.02492       -1.68042       -4.30599
C          5.41888       -1.62871       -4.29134
C          6.17269       -2.80919       -4.27492
C          5.51341       -4.04564       -4.27347
C          4.11843       -4.10404       -4.28395
C          7.67266       -2.73579       -4.27114
H          0.64259       -0.07410        0.84071
H          1.44405        1.51338        0.87106
H          2.14190        0.15040       -0.07309
H         -0.91078        1.60137       -2.79683
H          0.21903        2.82407       -3.37424
H          0.01208       -1.41482       -2.41830
H         -1.47137       -0.58018       -3.00659
H         -0.97348       -2.11359       -3.76348
H          1.31785        3.44225       -5.32935
H          2.55166        3.48449       -7.50322
H          3.02895        1.40444       -8.73684
H          2.30830       -0.81559       -7.84726
H          0.22525       -2.88713       -5.66885
H          1.76881       -2.53006       -6.43080
H          3.47089       -0.74833       -4.26686
H          5.92063       -0.66223       -4.27269
H          6.08534       -4.97210       -4.25132
H          3.62150       -5.07159       -4.25930
H          8.03224       -2.39105       -5.24574
H          8.01718       -2.04375       -3.49556
H          8.12090       -3.71294       -4.06454
