45

C          1.05050        0.01458        0.38903
C          0.74524        0.81715       -0.86560
C          1.19104        0.12659       -2.15656
C          0.53658       -1.22861       -2.44589
C         -0.99444       -1.23079       -2.50252
C         -1.62468       -0.23903       -3.48478
C         -1.19064       -0.38579       -4.94623
C         -1.56090       -1.71219       -5.60579
N         -3.03238       -1.90808       -5.63640
C         -3.59672       -2.89130       -4.89715
C         -4.97110       -3.10434       -4.92765
C         -5.78156       -2.30108       -5.72931
C         -5.17669       -1.29821       -6.48651
C         -3.79808       -1.12731       -6.43448
C         -7.27804       -2.50930       -5.77082
C         -7.80805       -2.96982       -7.13252
C         -7.33324       -4.36360       -7.51874
H          0.47123       -0.91265        0.42296
H          0.79441        0.59849        1.27902
H          2.11398       -0.23809        0.44473
H         -0.32537        1.04505       -0.90180
H          1.26346        1.78134       -0.79557
H          1.00695        0.80658       -2.99656
H          2.27834       -0.01852       -2.12223
H          0.93312       -1.60822       -3.39537
H          0.85502       -1.95304       -1.68643
H         -1.32859       -2.24630       -2.74379
H         -1.39134       -1.02235       -1.50157
H         -2.71553       -0.32911       -3.41774
H         -1.39560        0.78302       -3.16054
H         -1.63604        0.44061       -5.51300
H         -0.10655       -0.24764       -5.02597
H         -1.22509       -1.73300       -6.64936
H         -1.09818       -2.56265       -5.09550
H         -2.94353       -3.50499       -4.28357
H         -5.40317       -3.90162       -4.32480
H         -5.77481       -0.64733       -7.12212
H         -3.29853       -0.36426       -7.02451
H         -7.58032       -3.22940       -4.99991
H         -7.75882       -1.56053       -5.49995
H         -8.90404       -2.97587       -7.09351
H         -7.52540       -2.26097       -7.91932
H         -7.61034       -5.09806       -6.75592
H         -7.79336       -4.66792       -8.46436
H         -6.24755       -4.39513       -7.65130
