39

C          0.89661       -0.00175        0.04229
C          0.96259        0.75818        1.35482
O          1.42153        2.10658        1.14137
C          2.76575        2.26592        1.02291
O          3.58483        1.35671        1.02856
C          3.15688        3.73778        0.82734
N          2.48376        4.48968       -0.40378
C          0.95578        4.72778       -0.30579
C          0.40848        5.57698        0.81178
C          0.51382        6.97684        0.78925
C         -0.00821        7.74960        1.82917
C         -0.66204        7.13769        2.89467
C         -0.81017        5.75440        2.91452
C         -0.28868        4.98033        1.87611
C          3.22535        5.79561       -0.67754
C          2.70362        3.59971       -1.64777
C          3.06653        4.48008        2.15622
H          0.28888        0.54126       -0.68869
H          0.46667       -0.99614        0.19266
H          1.89184       -0.11971       -0.39749
H         -0.04171        0.83238        1.78464
H          1.59384        0.24545        2.08928
H          4.21991        3.71606        0.54861
H          0.66137        5.19430       -1.25640
H          0.47351        3.74495       -0.30716
H          0.98231        7.49536       -0.04381
H          0.08054        8.83412        1.80464
H         -1.07327        7.74110        3.70146
H         -1.34065        5.28005        3.73795
H         -0.43655        3.90248        1.91619
H          4.27884        5.56425       -0.86296
H          2.78539        6.26658       -1.56204
H          3.14071        6.45909        0.18232
H          3.77314        3.38854       -1.73930
H          2.13548        2.67370       -1.52672
H          2.34718        4.14359       -2.52813
H          3.84045        4.09682        2.83333
H          3.23153        5.55526        2.07267
H          2.12206        4.29952        2.67160
