66

C          1.70639        0.77515        0.39581
C          1.38517        0.77367       -1.09088
C          1.52472       -0.59921       -1.75485
C          0.62570       -1.70889       -1.19864
C         -0.86328       -1.36783       -1.08879
C         -1.57486       -1.03801       -2.40827
C         -1.77033       -2.26162       -3.31427
C         -3.20165       -2.38235       -3.85400
C         -3.57900       -1.40677       -4.96265
C         -2.91145       -1.68478       -6.29973
O         -1.88377       -1.15663       -6.68226
O         -3.62456       -2.58874       -7.03854
C         -3.28320       -2.70804       -8.43988
C         -2.42462       -3.95255       -8.73530
N         -3.16399       -5.21569       -9.27505
C         -4.30499       -5.68230       -8.39880
O         -5.30093       -4.73397       -8.11150
C         -6.19543       -5.18106       -7.08016
C         -5.71489       -4.78029       -5.68044
C         -5.27458       -5.90593       -4.73170
C         -3.98705       -6.67911       -5.03533
C         -2.72562       -5.83526       -5.16546
C         -3.67723       -4.99561      -10.68710
C         -2.14556       -6.36494       -9.30651
H          1.01144        0.14794        0.96144
H          1.63109        1.79292        0.79301
H          2.72391        0.41609        0.57843
H          0.37589        1.16984       -1.24652
H          2.06754        1.47004       -1.59318
H          1.33199       -0.48732       -2.82826
H          2.56845       -0.92847       -1.66910
H          0.75315       -2.60457       -1.81866
H          0.98695       -1.98565       -0.19981
H         -1.37609       -2.21191       -0.60931
H         -0.99073       -0.52290       -0.40260
H         -2.54871       -0.60517       -2.14947
H         -1.03355       -0.25821       -2.95478
H         -1.05062       -2.23358       -4.14004
H         -1.55493       -3.17829       -2.75129
H         -3.34609       -3.39874       -4.21739
H         -3.90517       -2.26375       -3.01928
H         -4.66497       -1.44820       -5.12087
H         -3.36398       -0.37302       -4.67220
H         -4.21838       -2.70114       -9.00432
H         -2.73611       -1.81571       -8.76513
H         -1.70353       -3.70240       -9.52324
H         -1.86869       -4.26383       -7.84570
H         -4.77057       -6.54209       -8.89859
H         -3.84231       -6.03129       -7.48832
H         -7.13545       -4.65104       -7.27644
H         -6.41077       -6.25122       -7.17138
H         -4.93865       -4.02291       -5.73906
H         -6.56623       -4.29469       -5.18321
H         -5.16127       -5.46144       -3.73423
H         -6.09357       -6.63046       -4.64907
H         -3.81796       -7.38983       -4.21710
H         -4.12710       -7.29746       -5.92677
H         -2.43951       -5.40556       -4.20218
H         -1.88971       -6.45388       -5.50919
H         -2.84101       -5.01769       -5.87881
H         -2.82847       -4.73257      -11.32591
H         -4.12667       -5.92923      -11.04326
H         -4.41967       -4.19598      -10.68274
H         -1.72103       -6.47992       -8.30338
H         -2.66338       -7.28499       -9.59756
H         -1.36119       -6.12048      -10.02703
