 xtb: 6.7.1 (edcfbbe)
          12202402083D

 69 69  0     0  0            999 V2000
    1.8933    0.6055   -0.5665 C   0  0  0  0  0  0  0  0  0  0  0  0
    1.6375    0.2998   -2.0376 C   0  0  0  0  0  0  0  0  0  0  0  0
    1.7400   -1.1890   -2.3727 C   0  0  0  0  0  0  0  0  0  0  0  0
    0.7359   -2.0868   -1.6462 C   0  0  0  0  0  0  0  0  0  0  0  0
   -0.7349   -1.7383   -1.8820 C   0  0  0  0  0  0  0  0  0  0  0  0
   -1.1845   -1.7798   -3.3438 C   0  0  0  0  0  0  0  0  0  0  0  0
   -1.0071   -3.1315   -4.0388 C   0  0  0  0  0  0  0  0  0  0  0  0
   -1.7210   -4.3046   -3.3637 C   0  0  0  0  0  0  0  0  0  0  0  0
   -3.2306   -4.1270   -3.1921 C   0  0  0  0  0  0  0  0  0  0  0  0
   -4.0132   -3.9053   -4.4889 C   0  0  0  0  0  0  0  0  0  0  0  0
   -3.8365   -4.9925   -5.5580 C   0  0  0  0  0  0  0  0  0  0  0  0
   -4.1759   -6.4209   -5.1149 C   0  0  0  0  0  0  0  0  0  0  0  0
   -5.5538   -6.9176   -5.3967 N   0  0  0  0  0  0  0  0  0  0  0  0
   -5.8112   -7.0200   -6.8804 C   0  0  0  0  0  0  0  0  0  0  0  0
   -4.8832   -7.9298   -7.6426 C   0  0  0  0  0  0  0  0  0  0  0  0
   -5.2584   -9.2431   -7.9150 C   0  0  0  0  0  0  0  0  0  0  0  0
   -4.4241  -10.0775   -8.6380 C   0  0  0  0  0  0  0  0  0  0  0  0
   -3.2068   -9.6089   -9.1027 C   0  0  0  0  0  0  0  0  0  0  0  0
   -2.8350   -8.2979   -8.8568 C   0  0  0  0  0  0  0  0  0  0  0  0
   -3.6690   -7.4613   -8.1359 C   0  0  0  0  0  0  0  0  0  0  0  0
   -5.7237   -8.2931   -4.8182 C   0  0  0  0  0  0  0  0  0  0  0  0
   -5.1761   -8.6096   -3.4226 C   0  0  0  0  0  0  0  0  0  0  0  0
   -5.8069   -7.9194   -2.2097 C   0  0  0  0  0  0  0  0  0  0  0  0
   -7.2998   -8.1888   -2.0644 C   0  0  0  0  0  0  0  0  0  0  0  0
   -6.5642   -5.9967   -4.8502 C   0  0  0  0  0  0  0  0  0  0  0  0
    1.1168    0.1812    0.0650 H   0  0  0  0  0  0  0  0  0  0  0  0
    1.9094    1.6805   -0.4039 H   0  0  0  0  0  0  0  0  0  0  0  0
    2.8526    0.1986   -0.2543 H   0  0  0  0  0  0  0  0  0  0  0  0
    0.6548    0.6800   -2.3231 H   0  0  0  0  0  0  0  0  0  0  0  0
    2.3774    0.8317   -2.6404 H   0  0  0  0  0  0  0  0  0  0  0  0
    1.6245   -1.3130   -3.4519 H   0  0  0  0  0  0  0  0  0  0  0  0
    2.7445   -1.5338   -2.1147 H   0  0  0  0  0  0  0  0  0  0  0  0
    0.9185   -3.1198   -1.9518 H   0  0  0  0  0  0  0  0  0  0  0  0
    0.9264   -2.0359   -0.5727 H   0  0  0  0  0  0  0  0  0  0  0  0
   -1.3475   -2.4248   -1.2924 H   0  0  0  0  0  0  0  0  0  0  0  0
   -0.9288   -0.7349   -1.4994 H   0  0  0  0  0  0  0  0  0  0  0  0
   -2.2351   -1.4819   -3.3876 H   0  0  0  0  0  0  0  0  0  0  0  0
   -0.6218   -1.0359   -3.9098 H   0  0  0  0  0  0  0  0  0  0  0  0
   -1.3542   -3.0338   -5.0706 H   0  0  0  0  0  0  0  0  0  0  0  0
    0.0565   -3.3701   -4.0844 H   0  0  0  0  0  0  0  0  0  0  0  0
   -1.5186   -5.2124   -3.9389 H   0  0  0  0  0  0  0  0  0  0  0  0
   -1.2896   -4.4567   -2.3736 H   0  0  0  0  0  0  0  0  0  0  0  0
   -3.6207   -4.9975   -2.6557 H   0  0  0  0  0  0  0  0  0  0  0  0
   -3.4133   -3.2653   -2.5497 H   0  0  0  0  0  0  0  0  0  0  0  0
   -5.0662   -3.7770   -4.2326 H   0  0  0  0  0  0  0  0  0  0  0  0
   -3.6827   -2.9663   -4.9339 H   0  0  0  0  0  0  0  0  0  0  0  0
   -4.4031   -4.7017   -6.4431 H   0  0  0  0  0  0  0  0  0  0  0  0
   -2.7860   -4.9943   -5.8507 H   0  0  0  0  0  0  0  0  0  0  0  0
   -3.4957   -7.1283   -5.5929 H   0  0  0  0  0  0  0  0  0  0  0  0
   -4.0252   -6.4755   -4.0387 H   0  0  0  0  0  0  0  0  0  0  0  0
   -6.8375   -7.3748   -6.9988 H   0  0  0  0  0  0  0  0  0  0  0  0
   -5.7506   -6.0133   -7.2955 H   0  0  0  0  0  0  0  0  0  0  0  0
   -6.2181   -9.6125   -7.5819 H   0  0  0  0  0  0  0  0  0  0  0  0
   -4.7306  -11.0908   -8.8446 H   0  0  0  0  0  0  0  0  0  0  0  0
   -2.5577  -10.2583   -9.6683 H   0  0  0  0  0  0  0  0  0  0  0  0
   -1.8982   -7.9204   -9.2356 H   0  0  0  0  0  0  0  0  0  0  0  0
   -3.3790   -6.4333   -7.9787 H   0  0  0  0  0  0  0  0  0  0  0  0
   -6.7911   -8.5182   -4.8401 H   0  0  0  0  0  0  0  0  0  0  0  0
   -5.2174   -8.9755   -5.5046 H   0  0  0  0  0  0  0  0  0  0  0  0
   -5.3477   -9.6830   -3.3054 H   0  0  0  0  0  0  0  0  0  0  0  0
   -4.0945   -8.4720   -3.3973 H   0  0  0  0  0  0  0  0  0  0  0  0
   -5.3015   -8.3154   -1.3270 H   0  0  0  0  0  0  0  0  0  0  0  0
   -5.6162   -6.8440   -2.2142 H   0  0  0  0  0  0  0  0  0  0  0  0
   -7.4913   -9.2588   -2.0630 H   0  0  0  0  0  0  0  0  0  0  0  0
   -7.6576   -7.7833   -1.1224 H   0  0  0  0  0  0  0  0  0  0  0  0
   -7.8820   -7.7348   -2.8620 H   0  0  0  0  0  0  0  0  0  0  0  0
   -6.3964   -5.8382   -3.7893 H   0  0  0  0  0  0  0  0  0  0  0  0
   -6.5161   -5.0394   -5.3635 H   0  0  0  0  0  0  0  0  0  0  0  0
   -7.5622   -6.4082   -4.9918 H   0  0  0  0  0  0  0  0  0  0  0  0
  1  2  1  0  0  0  0
  2  3  1  0  0  0  0
  3  4  1  0  0  0  0
  4  5  1  0  0  0  0
  5  6  1  0  0  0  0
  6  7  1  0  0  0  0
  7  8  1  0  0  0  0
  8  9  1  0  0  0  0
  9 10  1  0  0  0  0
 10 11  1  0  0  0  0
 11 12  1  0  0  0  0
 12 13  1  0  0  0  0
 13 14  1  0  0  0  0
 14 15  1  0  0  0  0
 15 16  4  0  0  0  0
 16 17  4  0  0  0  0
 17 18  4  0  0  0  0
 18 19  4  0  0  0  0
 15 20  4  0  0  0  0
 19 20  4  0  0  0  0
 13 21  1  0  0  0  0
 21 22  1  0  0  0  0
 22 23  1  0  0  0  0
 23 24  1  0  0  0  0
 13 25  1  0  0  0  0
  1 26  1  0  0  0  0
  1 27  1  0  0  0  0
  1 28  1  0  0  0  0
  2 29  1  0  0  0  0
  2 30  1  0  0  0  0
  3 31  1  0  0  0  0
  3 32  1  0  0  0  0
  4 33  1  0  0  0  0
  4 34  1  0  0  0  0
  5 35  1  0  0  0  0
  5 36  1  0  0  0  0
  6 37  1  0  0  0  0
  6 38  1  0  0  0  0
  7 39  1  0  0  0  0
  7 40  1  0  0  0  0
  8 41  1  0  0  0  0
  8 42  1  0  0  0  0
  9 43  1  0  0  0  0
  9 44  1  0  0  0  0
 10 45  1  0  0  0  0
 10 46  1  0  0  0  0
 11 47  1  0  0  0  0
 11 48  1  0  0  0  0
 12 49  1  0  0  0  0
 12 50  1  0  0  0  0
 14 51  1  0  0  0  0
 14 52  1  0  0  0  0
 16 53  1  0  0  0  0
 17 54  1  0  0  0  0
 18 55  1  0  0  0  0
 19 56  1  0  0  0  0
 20 57  1  0  0  0  0
 21 58  1  0  0  0  0
 21 59  1  0  0  0  0
 22 60  1  0  0  0  0
 22 61  1  0  0  0  0
 23 62  1  0  0  0  0
 23 63  1  0  0  0  0
 24 64  1  0  0  0  0
 24 65  1  0  0  0  0
 24 66  1  0  0  0  0
 25 67  1  0  0  0  0
 25 68  1  0  0  0  0
 25 69  1  0  0  0  0
M  CHG  1   1   1
M  END
