41

C          0.76622       -0.33383        0.61483
C          0.58182        0.96203       -0.15924
C          1.27940        0.96196       -1.52079
C          0.78328       -0.08398       -2.52507
C         -0.69190        0.01575       -2.93075
C         -1.15459        1.30683       -3.62412
N         -0.95564        1.38614       -5.16332
C         -1.53476        0.10960       -5.88345
C         -2.98747       -0.20595       -5.55953
C         -1.74440        2.60198       -5.73968
C         -1.37048        3.96565       -5.18538
C          0.52940        1.42428       -5.60729
C          1.39823        2.50823       -4.99570
H          0.25935       -1.16977        0.12433
H          0.34513       -0.23381        1.62037
H          1.82740       -0.58290        0.71678
H         -0.48601        1.17619       -0.27316
H          0.99923        1.78212        0.43782
H          1.19165        1.96355       -1.95148
H          2.35328        0.79834       -1.36332
H          1.42312       -0.04212       -3.40879
H          0.94955       -1.08323       -2.10373
H         -0.94849       -0.86893       -3.51883
H         -1.29018       -0.08596       -2.01599
H         -2.23384        1.41703       -3.46442
H         -0.69062        2.18284       -3.17128
H         -1.42258        0.27925       -6.96114
H         -0.89362       -0.73705       -5.61726
H         -3.67226        0.56107       -5.92952
H         -3.26876       -1.14110       -6.05676
H         -3.16246       -0.34807       -4.49090
H         -1.61746        2.58428       -6.82776
H         -2.79978        2.43044       -5.50978
H         -0.41100        4.31818       -5.56341
H         -2.11193        4.69992       -5.52170
H         -1.36447        4.00030       -4.09437
H          0.94967        0.44118       -5.37845
H          0.53217        1.52468       -6.69959
H          1.07293        2.85973       -4.01854
H          2.42229        2.13384       -4.88512
H          1.46990        3.36986       -5.66591
