22

C          1.02213        0.04099       -0.08849
N         -0.23884        0.04099       -0.08849
C          2.54213        0.04099       -0.08849
N          3.06679        1.30419       -0.68552
C          3.15783        2.47008        0.02798
C          3.62640        3.62745       -0.62479
C          3.98688        3.59369       -1.96366
C          3.87820        2.40313       -2.65718
C          3.41422        1.27328       -1.99980
C          2.74315        2.59476        1.47964
C          1.37256        3.23920        1.63479
H          2.95652       -0.08216        0.91382
H          2.90876       -0.80047       -0.68708
H          3.70036        4.57114       -0.08307
H          4.34077        4.49499       -2.46285
H          4.14593        2.35717       -3.71117
H          3.30858        0.33167       -2.53484
H          2.74971        1.63057        1.99089
H          3.48956        3.20387        2.00543
H          0.59565        2.66134        1.12642
H          1.10603        3.30611        2.69450
H          1.35758        4.25286        1.22065
