57

C          1.07088       -0.53551        0.40377
C          0.97914        0.71531        1.26427
C          1.31726        2.00320        0.50880
C          0.41337        2.32601       -0.68589
C         -1.07984        2.45699       -0.36740
C         -1.44444        3.54157        0.65276
C         -1.03569        4.96975        0.27465
C         -1.59383        5.48572       -1.05559
C         -3.12233        5.52016       -1.15923
C         -3.83320        6.44660       -0.16527
C         -3.42787        7.92535       -0.21973
C         -3.49014        8.58342       -1.60208
C         -4.86830        8.57957       -2.26988
C         -5.89546        9.51280       -1.63166
N         -5.47183       10.93557       -1.71651
C         -5.27153       11.64554       -0.58099
C         -4.90314       12.98658       -0.63607
C         -4.72573       13.60687       -1.87092
C         -4.95686       12.86394       -3.02650
C         -5.34029       11.53149       -2.92575
C         -4.34341       15.05605       -1.96680
H          0.31190       -0.53771       -0.38398
H          0.91195       -1.42717        1.01882
H          2.05683       -0.61907       -0.06427
H         -0.02009        0.78230        1.70777
H          1.68135        0.61279        2.10058
H          1.29906        2.83976        1.21706
H          2.35173        1.93790        0.14809
H          0.77012        3.25327       -1.14970
H          0.53731        1.55085       -1.45171
H         -1.61850        2.64308       -1.30407
H         -1.45839        1.49529       -0.00138
H         -2.52745        3.50851        0.82070
H         -0.99134        3.29645        1.62067
H         -1.34207        5.64443        1.08277
H          0.05845        5.03357        0.23782
H         -1.19166        6.48984       -1.23292
H         -1.20583        4.86869       -1.87468
H         -3.39197        5.81302       -2.18089
H         -3.52098        4.50644       -1.03546
H         -4.91402        6.36671       -0.33375
H         -3.66899        6.07947        0.85500
H         -4.06022        8.48523        0.47956
H         -2.40408        8.02572        0.16105
H         -3.12387        9.61314       -1.51613
H         -2.78363        8.07870       -2.27115
H         -4.73185        8.85075       -3.32308
H         -5.27822        7.56382       -2.28075
H         -6.85584        9.45078       -2.15693
H         -6.07288        9.25507       -0.58288
H         -5.41457       11.13778        0.36854
H         -4.75681       13.54225        0.28893
H         -4.84439       13.32033       -4.00868
H         -5.54247       10.93427       -3.81009
H         -5.21022       15.65308       -2.26708
H         -3.97719       15.43600       -1.00744
H         -3.54257       15.19122       -2.70135
