28

C          1.00018        0.00842       -0.09964
N         -0.26078        0.00842       -0.09964
C          2.52018        0.00842       -0.09964
C          3.04412        1.27338        0.59335
C          2.49735        1.53858        2.00373
N          3.08960        0.60057        2.99866
C          4.25927        0.88704        3.64578
C          4.75940       -0.02352        4.58881
C          4.08173       -1.20507        4.85612
C          2.89088       -1.47481        4.19541
C          2.40302       -0.53650        3.29041
C          2.12003       -2.72583        4.50159
C          4.99090        2.18317        3.42536
H          2.88164       -0.89012        0.41061
H          2.88127       -0.02738       -1.13307
H          4.13845        1.22689        0.61216
H          2.77715        2.13723       -0.02942
H          2.73383        2.55882        2.32139
H          1.40721        1.45556        2.06296
H          5.68133        0.18967        5.12885
H          4.48163       -1.90288        5.59207
H          1.45229       -0.68920        2.78496
H          2.79750       -3.58225        4.58538
H          1.57204       -2.60896        5.44146
H          1.40390       -2.95384        3.70516
H          5.12699        2.38449        2.36025
H          4.43419        3.00580        3.88469
H          5.98853        2.15933        3.87639
