38

F          0.11697       -0.50909       -1.99411
C          1.42218       -0.19767       -1.87299
C          1.82915        0.81737       -2.90653
C          1.03041        2.09415       -2.70694
N          1.84400        3.19457       -2.16170
C          2.24143        4.33528       -2.84247
C          2.95160        5.09838       -1.96007
N          2.97426        4.41216       -0.75596
C          2.28350        3.26833       -0.89122
C          3.70269        4.85630        0.45822
C          3.74618        3.82479        1.59693
O          4.38007        2.64545        1.10430
Si         4.29284        1.18592        1.93205
C          2.56249        0.90492        2.61013
C          4.66964       -0.17492        0.68369
C          5.51787        1.07335        3.33721
F          1.61219        0.30115       -0.63080
F          2.14330       -1.32682       -1.98463
H          2.90664        1.00479       -2.84996
H          1.61900        0.40189       -3.89837
H          0.63987        2.42919       -3.67566
H          0.16603        1.96436       -2.04562
H          1.96362        4.45821       -3.87628
H          3.45386        6.04898       -2.03207
H          2.09874        2.52994       -0.12594
H          4.72650        5.08590        0.13813
H          3.22810        5.78031        0.80589
H          4.31943        4.22861        2.43956
H          2.72236        3.61793        1.92973
H          1.80853        1.07433        1.83670
H          2.45326       -0.12000        2.97559
H          2.35837        1.58748        3.44057
H          5.73622       -0.18359        0.44081
H          4.39124       -1.15616        1.07627
H          4.11464        0.00037       -0.24234
H          6.53834        1.24768        2.98429
H          5.29328        1.80708        4.11658
H          5.48405        0.07763        3.79155
