 xtb: 6.7.1 (edcfbbe)
          12202402083D

 49 49  0     0  0            999 V2000
    1.2287   -0.1102   -0.2357 C   0  0  0  0  0  0  0  0  0  0  0  0
    0.9357   -0.5187    1.2029 C   0  0  0  0  0  0  0  0  0  0  0  0
    1.3085    0.5569    2.2244 C   0  0  0  0  0  0  0  0  0  0  0  0
    0.5591    1.8818    2.0700 C   0  0  0  0  0  0  0  0  0  0  0  0
   -0.9641    1.7802    2.1719 C   0  0  0  0  0  0  0  0  0  0  0  0
   -1.4870    1.1909    3.4836 C   0  0  0  0  0  0  0  0  0  0  0  0
   -1.0523    1.9374    4.7465 C   0  0  0  0  0  0  0  0  0  0  0  0
   -1.4571    3.4118    4.7966 C   0  0  0  0  0  0  0  0  0  0  0  0
   -2.9624    3.6731    4.7014 C   0  0  0  0  0  0  0  0  0  0  0  0
   -3.8078    2.9755    5.7706 C   0  0  0  0  0  0  0  0  0  0  0  0
   -3.4240    3.3045    7.2133 C   0  0  0  0  0  0  0  0  0  0  0  0
   -3.6186    4.7792    7.5864 C   0  0  0  0  0  0  0  0  0  0  0  0
   -5.0176    5.1383    7.5634 N   0  0  0  0  0  0  0  0  0  0  0  0
   -5.9085    4.9082    8.5662 C   0  0  0  0  0  0  0  0  0  0  0  0
   -7.1299    5.3219    8.1287 C   0  0  0  0  0  0  0  0  0  0  0  0
   -6.9666    5.7941    6.8617 N   0  0  0  0  0  0  0  0  0  0  0  0
   -5.6813    5.6682    6.5405 C   0  0  0  0  0  0  0  0  0  0  0  0
   -8.0098    6.3353    6.0325 C   0  0  0  0  0  0  0  0  0  0  0  0
    0.5879    0.7091   -0.5521 H   0  0  0  0  0  0  0  0  0  0  0  0
    1.0575   -0.9491   -0.9064 H   0  0  0  0  0  0  0  0  0  0  0  0
    2.2652    0.2030   -0.3384 H   0  0  0  0  0  0  0  0  0  0  0  0
   -0.1206   -0.7764    1.3005 H   0  0  0  0  0  0  0  0  0  0  0  0
    1.5106   -1.4178    1.4368 H   0  0  0  0  0  0  0  0  0  0  0  0
    1.1417    0.1589    3.2277 H   0  0  0  0  0  0  0  0  0  0  0  0
    2.3777    0.7644    2.1340 H   0  0  0  0  0  0  0  0  0  0  0  0
    0.9289    2.5740    2.8301 H   0  0  0  0  0  0  0  0  0  0  0  0
    0.8043    2.3173    1.0998 H   0  0  0  0  0  0  0  0  0  0  0  0
   -1.3840    2.7789    2.0275 H   0  0  0  0  0  0  0  0  0  0  0  0
   -1.3353    1.1607    1.3537 H   0  0  0  0  0  0  0  0  0  0  0  0
   -2.5785    1.1588    3.4345 H   0  0  0  0  0  0  0  0  0  0  0  0
   -1.1445    0.1587    3.5703 H   0  0  0  0  0  0  0  0  0  0  0  0
   -1.4612    1.4137    5.6140 H   0  0  0  0  0  0  0  0  0  0  0  0
    0.0340    1.8872    4.8310 H   0  0  0  0  0  0  0  0  0  0  0  0
   -1.0654    3.8475    5.7194 H   0  0  0  0  0  0  0  0  0  0  0  0
   -0.9758    3.9386    3.9717 H   0  0  0  0  0  0  0  0  0  0  0  0
   -3.1228    4.7548    4.7388 H   0  0  0  0  0  0  0  0  0  0  0  0
   -3.3176    3.3366    3.7268 H   0  0  0  0  0  0  0  0  0  0  0  0
   -4.8619    3.2203    5.6042 H   0  0  0  0  0  0  0  0  0  0  0  0
   -3.7118    1.8978    5.6410 H   0  0  0  0  0  0  0  0  0  0  0  0
   -4.0161    2.6860    7.8909 H   0  0  0  0  0  0  0  0  0  0  0  0
   -2.3758    3.0592    7.3751 H   0  0  0  0  0  0  0  0  0  0  0  0
   -3.2382    4.9583    8.5938 H   0  0  0  0  0  0  0  0  0  0  0  0
   -3.0809    5.4195    6.8866 H   0  0  0  0  0  0  0  0  0  0  0  0
   -5.6219    4.4811    9.5057 H   0  0  0  0  0  0  0  0  0  0  0  0
   -8.0793    5.3150    8.6237 H   0  0  0  0  0  0  0  0  0  0  0  0
   -5.2457    5.9584    5.6041 H   0  0  0  0  0  0  0  0  0  0  0  0
   -8.5015    7.1633    6.5439 H   0  0  0  0  0  0  0  0  0  0  0  0
   -7.5901    6.6941    5.0955 H   0  0  0  0  0  0  0  0  0  0  0  0
   -8.7564    5.5691    5.8186 H   0  0  0  0  0  0  0  0  0  0  0  0
  1  2  1  0  0  0  0
  2  3  1  0  0  0  0
  3  4  1  0  0  0  0
  4  5  1  0  0  0  0
  5  6  1  0  0  0  0
  6  7  1  0  0  0  0
  7  8  1  0  0  0  0
  8  9  1  0  0  0  0
  9 10  1  0  0  0  0
 10 11  1  0  0  0  0
 11 12  1  0  0  0  0
 12 13  1  0  0  0  0
 13 14  4  0  0  0  0
 14 15  2  0  0  0  0
 15 16  4  0  0  0  0
 13 17  4  0  0  0  0
 16 17  4  0  0  0  0
 16 18  1  0  0  0  0
  1 19  1  0  0  0  0
  1 20  1  0  0  0  0
  1 21  1  0  0  0  0
  2 22  1  0  0  0  0
  2 23  1  0  0  0  0
  3 24  1  0  0  0  0
  3 25  1  0  0  0  0
  4 26  1  0  0  0  0
  4 27  1  0  0  0  0
  5 28  1  0  0  0  0
  5 29  1  0  0  0  0
  6 30  1  0  0  0  0
  6 31  1  0  0  0  0
  7 32  1  0  0  0  0
  7 33  1  0  0  0  0
  8 34  1  0  0  0  0
  8 35  1  0  0  0  0
  9 36  1  0  0  0  0
  9 37  1  0  0  0  0
 10 38  1  0  0  0  0
 10 39  1  0  0  0  0
 11 40  1  0  0  0  0
 11 41  1  0  0  0  0
 12 42  1  0  0  0  0
 12 43  1  0  0  0  0
 14 44  1  0  0  0  0
 15 45  1  0  0  0  0
 17 46  1  0  0  0  0
 18 47  1  0  0  0  0
 18 48  1  0  0  0  0
 18 49  1  0  0  0  0
M  CHG  1   1   1
M  END
