 xtb: 6.7.1 (edcfbbe)
          12202402083D

 40 40  0     0  0            999 V2000
    2.1454    0.7774   -0.1495 C   0  0  0  0  0  0  0  0  0  0  0  0
    0.9207    1.2642    0.6156 C   0  0  0  0  0  0  0  0  0  0  0  0
    0.6842    2.7696    0.4834 C   0  0  0  0  0  0  0  0  0  0  0  0
    0.4507    3.2615   -0.9475 C   0  0  0  0  0  0  0  0  0  0  0  0
   -0.7207    2.5944   -1.6737 C   0  0  0  0  0  0  0  0  0  0  0  0
   -2.0741    2.7317   -0.9785 C   0  0  0  0  0  0  0  0  0  0  0  0
   -2.5634    4.1806   -0.8483 C   0  0  0  0  0  0  0  0  0  0  0  0
   -2.8028    4.7452   -2.1489 N   0  0  0  0  0  0  0  0  0  0  0  0
   -3.9669    4.5706   -2.7633 N   0  0  0  0  0  0  0  0  0  0  0  0
   -3.8523    5.1188   -3.9299 C   0  0  0  0  0  0  0  0  0  0  0  0
   -2.6056    5.6481   -4.0886 N   0  0  0  0  0  0  0  0  0  0  0  0
   -1.9625    5.3896   -2.9377 C   0  0  0  0  0  0  0  0  0  0  0  0
   -2.1083    6.3950   -5.2133 C   0  0  0  0  0  0  0  0  0  0  0  0
   -2.5798    7.8670   -5.2187 C   0  0  0  0  0  0  0  0  0  0  0  0
   -2.2810    8.5267   -3.8497 C   0  0  0  0  0  0  0  0  0  0  0  0
   -1.0599    8.2220   -3.3923 F   0  0  0  0  0  0  0  0  0  0  0  0
   -2.3879    9.8436   -3.9104 F   0  0  0  0  0  0  0  0  0  0  0  0
   -3.1454    8.0804   -2.9151 F   0  0  0  0  0  0  0  0  0  0  0  0
   -1.8785    8.4800   -6.2426 O   0  0  0  0  0  0  0  0  0  0  0  0
    2.0079    0.8695   -1.2242 H   0  0  0  0  0  0  0  0  0  0  0  0
    2.3328   -0.2691    0.0748 H   0  0  0  0  0  0  0  0  0  0  0  0
    3.0249    1.3491    0.1371 H   0  0  0  0  0  0  0  0  0  0  0  0
    0.0393    0.7118    0.2845 H   0  0  0  0  0  0  0  0  0  0  0  0
    1.0592    1.0425    1.6753 H   0  0  0  0  0  0  0  0  0  0  0  0
   -0.1616    3.0515    1.1145 H   0  0  0  0  0  0  0  0  0  0  0  0
    1.5607    3.2913    0.8725 H   0  0  0  0  0  0  0  0  0  0  0  0
    0.3100    4.3459   -0.9153 H   0  0  0  0  0  0  0  0  0  0  0  0
    1.3526    3.0786   -1.5323 H   0  0  0  0  0  0  0  0  0  0  0  0
   -0.7819    2.9950   -2.6915 H   0  0  0  0  0  0  0  0  0  0  0  0
   -0.5078    1.5303   -1.7722 H   0  0  0  0  0  0  0  0  0  0  0  0
   -2.8243    2.1583   -1.5260 H   0  0  0  0  0  0  0  0  0  0  0  0
   -2.0109    2.3187    0.0266 H   0  0  0  0  0  0  0  0  0  0  0  0
   -3.5125    4.2009   -0.3110 H   0  0  0  0  0  0  0  0  0  0  0  0
   -1.8274    4.7920   -0.3262 H   0  0  0  0  0  0  0  0  0  0  0  0
   -4.6280    5.1437   -4.6681 H   0  0  0  0  0  0  0  0  0  0  0  0
   -0.9555    5.6765   -2.7025 H   0  0  0  0  0  0  0  0  0  0  0  0
   -1.0151    6.3999   -5.2023 H   0  0  0  0  0  0  0  0  0  0  0  0
   -2.4429    5.9354   -6.1460 H   0  0  0  0  0  0  0  0  0  0  0  0
   -3.6734    7.9289   -5.3539 H   0  0  0  0  0  0  0  0  0  0  0  0
   -2.1249    9.4088   -6.3496 H   0  0  0  0  0  0  0  0  0  0  0  0
  1  2  1  0  0  0  0
  2  3  1  0  0  0  0
  3  4  1  0  0  0  0
  4  5  1  0  0  0  0
  5  6  1  0  0  0  0
  6  7  1  0  0  0  0
  7  8  1  0  0  0  0
  8  9  4  0  0  0  0
  9 10  2  0  0  0  0
 10 11  4  0  0  0  0
  8 12  4  0  0  0  0
 11 12  4  0  0  0  0
 11 13  1  0  0  0  0
 13 14  1  0  0  0  0
 14 15  1  0  0  0  0
 15 16  1  0  0  0  0
 15 17  1  0  0  0  0
 15 18  1  0  0  0  0
 14 19  1  0  0  0  0
  1 20  1  0  0  0  0
  1 21  1  0  0  0  0
  1 22  1  0  0  0  0
  2 23  1  0  0  0  0
  2 24  1  0  0  0  0
  3 25  1  0  0  0  0
  3 26  1  0  0  0  0
  4 27  1  0  0  0  0
  4 28  1  0  0  0  0
  5 29  1  0  0  0  0
  5 30  1  0  0  0  0
  6 31  1  0  0  0  0
  6 32  1  0  0  0  0
  7 33  1  0  0  0  0
  7 34  1  0  0  0  0
 10 35  1  0  0  0  0
 12 36  1  0  0  0  0
 13 37  1  0  0  0  0
 13 38  1  0  0  0  0
 14 39  1  0  0  0  0
 19 40  1  0  0  0  0
M  CHG  1   1   1
M  END
