41

C          1.17978       -0.68848       -0.18670
C          0.56504        0.07532       -1.17542
C         -0.81534       -0.03214       -1.33648
C         -1.54785       -0.90422       -0.52739
C         -0.90635       -1.67880        0.44491
C          0.47304       -1.57555        0.61640
N          2.62781       -0.60296       -0.03457
N          3.29335       -0.32342        1.12989
C          4.69940       -0.42257        0.89043
C          4.91850       -0.73914       -0.49913
C          3.59450       -0.84379       -1.06406
C          3.31468       -1.22049       -2.45722
C          5.76580       -0.23099        1.88247
C          2.66250        0.12389        2.38899
C          2.76355        1.63682        2.58782
C          1.84758        2.46554        1.68253
C          0.34745        2.31667        1.95213
C         -0.07091        2.77652        3.34028
H          1.12894        0.76596       -1.79164
H         -1.32743        0.56329       -2.09125
H         -2.62620       -0.98759       -0.65969
H         -1.48739       -2.36726        1.05517
H          0.97775       -2.20409        1.34334
H          5.86443       -0.88237       -1.00324
H          2.51155       -1.96148       -2.49507
H          3.02060       -0.33574       -3.02794
H          4.20263       -1.65683       -2.92457
H          5.86607        0.83087        2.12066
H          5.53206       -0.78506        2.79537
H          6.72332       -0.59371        1.49684
H          1.62976       -0.21287        2.45740
H          3.19590       -0.38044        3.20351
H          2.55416        1.87152        3.63715
H          3.79505        1.95934        2.40721
H          2.11618        3.52309        1.80013
H          2.04934        2.21762        0.63436
H         -0.19512        2.91563        1.21079
H          0.02705        1.28142        1.80786
H          0.26245        3.80083        3.53367
H         -1.16176        2.75274        3.43034
H          0.33735        2.12491        4.11831
