 xtb: 6.7.1 (edcfbbe)
          12202402093D

 47 50  0     0  0            999 V2000
    4.6204   -2.8073   -0.6095 O   0  0  0  0  0  0  0  0  0  0  0  0
    4.6151   -1.8265    0.0883 C   0  0  0  0  0  0  0  0  0  0  0  0
    5.2450   -0.5495   -0.2926 C   0  0  0  0  0  0  0  0  0  0  0  0
    5.4546   -0.3226   -1.6567 C   0  0  0  0  0  0  0  0  0  0  0  0
    6.0121    0.8630   -2.0923 C   0  0  0  0  0  0  0  0  0  0  0  0
    6.3804    1.8323   -1.1714 C   0  0  0  0  0  0  0  0  0  0  0  0
    6.2030    1.6048    0.1852 C   0  0  0  0  0  0  0  0  0  0  0  0
    5.6384    0.4233    0.6283 C   0  0  0  0  0  0  0  0  0  0  0  0
    3.8697   -1.8617    1.4415 C   0  0  0  0  0  0  0  0  0  0  0  0
    3.0737   -0.6842    1.6704 N   0  0  0  0  0  0  0  0  0  0  0  0
    3.0938    0.1083    2.8016 C   0  0  0  0  0  0  0  0  0  0  0  0
    3.7914    0.0204    4.0001 C   0  0  0  0  0  0  0  0  0  0  0  0
    3.5518    1.0048    4.9379 C   0  0  0  0  0  0  0  0  0  0  0  0
    2.6516    2.0476    4.7029 C   0  0  0  0  0  0  0  0  0  0  0  0
    1.9550    2.1472    3.5161 C   0  0  0  0  0  0  0  0  0  0  0  0
    2.1903    1.1570    2.5737 C   0  0  0  0  0  0  0  0  0  0  0  0
    1.6746    0.9653    1.3031 N   0  0  0  0  0  0  0  0  0  0  0  0
    2.2098   -0.1535    0.7868 C   0  0  0  0  0  0  0  0  0  0  0  0
    1.8196   -0.7876   -0.4894 C   0  0  0  0  0  0  0  0  0  0  0  0
    0.7199    1.7846    0.8014 N   0  0  0  0  0  0  0  0  0  0  0  0
    0.7708    2.1855   -0.4112 C   0  0  0  0  0  0  0  0  0  0  0  0
   -0.2409    3.0439   -0.9623 C   0  0  0  0  0  0  0  0  0  0  0  0
   -0.1206    3.4858   -2.2856 C   0  0  0  0  0  0  0  0  0  0  0  0
   -1.0785    4.3184   -2.8275 C   0  0  0  0  0  0  0  0  0  0  0  0
   -2.1634    4.7200   -2.0611 C   0  0  0  0  0  0  0  0  0  0  0  0
   -2.2926    4.2860   -0.7480 C   0  0  0  0  0  0  0  0  0  0  0  0
   -1.3420    3.4528   -0.1979 C   0  0  0  0  0  0  0  0  0  0  0  0
    5.1698   -1.0942   -2.3568 H   0  0  0  0  0  0  0  0  0  0  0  0
    6.1673    1.0297   -3.1469 H   0  0  0  0  0  0  0  0  0  0  0  0
    6.8193    2.7587   -1.5084 H   0  0  0  0  0  0  0  0  0  0  0  0
    6.5142    2.3491    0.9020 H   0  0  0  0  0  0  0  0  0  0  0  0
    5.5474    0.2529    1.6901 H   0  0  0  0  0  0  0  0  0  0  0  0
    3.2451   -2.7618    1.4519 H   0  0  0  0  0  0  0  0  0  0  0  0
    4.6052   -1.9522    2.2433 H   0  0  0  0  0  0  0  0  0  0  0  0
    4.4839   -0.7806    4.2034 H   0  0  0  0  0  0  0  0  0  0  0  0
    4.0719    0.9666    5.8817 H   0  0  0  0  0  0  0  0  0  0  0  0
    2.4982    2.7885    5.4708 H   0  0  0  0  0  0  0  0  0  0  0  0
    1.2537    2.9409    3.3210 H   0  0  0  0  0  0  0  0  0  0  0  0
    2.5282   -0.5587   -1.2865 H   0  0  0  0  0  0  0  0  0  0  0  0
    1.7935   -1.8710   -0.3790 H   0  0  0  0  0  0  0  0  0  0  0  0
    0.8331   -0.4407   -0.7944 H   0  0  0  0  0  0  0  0  0  0  0  0
    1.5985    1.9169   -1.0747 H   0  0  0  0  0  0  0  0  0  0  0  0
    0.7258    3.1736   -2.8800 H   0  0  0  0  0  0  0  0  0  0  0  0
   -0.9827    4.6574   -3.8472 H   0  0  0  0  0  0  0  0  0  0  0  0
   -2.9095    5.3724   -2.4878 H   0  0  0  0  0  0  0  0  0  0  0  0
   -3.1388    4.6022   -0.1580 H   0  0  0  0  0  0  0  0  0  0  0  0
   -1.4248    3.1046    0.8194 H   0  0  0  0  0  0  0  0  0  0  0  0
  1  2  2  0  0  0  0
  2  3  1  0  0  0  0
  3  4  4  0  0  0  0
  4  5  4  0  0  0  0
  5  6  4  0  0  0  0
  6  7  4  0  0  0  0
  3  8  4  0  0  0  0
  7  8  4  0  0  0  0
  2  9  1  0  0  0  0
  9 10  1  0  0  0  0
 10 11  1  0  0  0  0
 11 12  4  0  0  0  0
 12 13  4  0  0  0  0
 13 14  4  0  0  0  0
 14 15  4  0  0  0  0
 11 16  4  0  0  0  0
 15 16  4  0  0  0  0
 16 17  1  0  0  0  0
 10 18  4  0  0  0  0
 17 18  4  0  0  0  0
 18 19  1  0  0  0  0
 17 20  1  0  0  0  0
 20 21  2  0  0  0  0
 21 22  1  0  0  0  0
 22 23  4  0  0  0  0
 23 24  4  0  0  0  0
 24 25  4  0  0  0  0
 25 26  4  0  0  0  0
 22 27  4  0  0  0  0
 26 27  4  0  0  0  0
  4 28  1  0  0  0  0
  5 29  1  0  0  0  0
  6 30  1  0  0  0  0
  7 31  1  0  0  0  0
  8 32  1  0  0  0  0
  9 33  1  0  0  0  0
  9 34  1  0  0  0  0
 12 35  1  0  0  0  0
 13 36  1  0  0  0  0
 14 37  1  0  0  0  0
 15 38  1  0  0  0  0
 19 39  1  0  0  0  0
 19 40  1  0  0  0  0
 19 41  1  0  0  0  0
 21 42  1  0  0  0  0
 23 43  1  0  0  0  0
 24 44  1  0  0  0  0
 25 45  1  0  0  0  0
 26 46  1  0  0  0  0
 27 47  1  0  0  0  0
M  CHG  1   1   1
M  END
