 xtb: 6.7.1 (edcfbbe)
          12202402093D

 14 13  0     0  0            999 V2000
    1.0058   -0.0828   -0.0091 C   0  0  0  0  0  0  0  0  0  0  0  0
    0.5463   -0.0411   -1.4536 C   0  0  0  0  0  0  0  0  0  0  0  0
    1.0058   -1.2448   -2.2532 C   0  0  0  0  0  0  0  0  0  0  0  0
   -0.9689   -0.0185   -1.4653 N   0  0  0  0  0  0  0  0  0  0  0  0
    0.6749   -0.9947    0.4828 H   0  0  0  0  0  0  0  0  0  0  0  0
    0.6443    0.7764    0.5508 H   0  0  0  0  0  0  0  0  0  0  0  0
    2.0911   -0.0637    0.0286 H   0  0  0  0  0  0  0  0  0  0  0  0
    0.8809    0.8831   -1.9322 H   0  0  0  0  0  0  0  0  0  0  0  0
    0.6749   -2.1728   -1.7924 H   0  0  0  0  0  0  0  0  0  0  0  0
    0.6443   -1.2061   -3.2780 H   0  0  0  0  0  0  0  0  0  0  0  0
    2.0911   -1.2646   -2.2906 H   0  0  0  0  0  0  0  0  0  0  0  0
   -1.3274    0.7883   -0.9396 H   0  0  0  0  0  0  0  0  0  0  0  0
   -1.3275    0.0178   -2.4275 H   0  0  0  0  0  0  0  0  0  0  0  0
   -1.3169   -0.8785   -1.0200 H   0  0  0  0  0  0  0  0  0  0  0  0
  1  2  1  0  0  0  0
  2  3  1  0  0  0  0
  2  4  1  0  0  0  0
  1  5  1  0  0  0  0
  1  6  1  0  0  0  0
  1  7  1  0  0  0  0
  2  8  1  0  0  0  0
  3  9  1  0  0  0  0
  3 10  1  0  0  0  0
  3 11  1  0  0  0  0
  4 12  1  0  0  0  0
  4 13  1  0  0  0  0
  4 14  1  0  0  0  0
M  CHG  1   1   1
M  END
