26

C          1.69856       -0.97030       -3.03380
C          0.77557       -2.01806       -2.46363
O         -0.06167       -2.57096       -3.17947
C          0.89877       -2.38957       -1.00150
N          0.39541       -1.39440        0.02842
C          0.89642       -1.47605        1.29759
C          0.52221       -0.60555        2.31118
C         -0.41058        0.37435        2.05471
C         -0.98499        0.42272        0.79729
C         -0.61781       -0.49202       -0.21294
C         -1.41598       -0.43763       -1.48883
C          2.36879       -2.78003       -0.77538
H          1.25792       -0.56258       -3.94848
H          2.66535       -1.41856       -3.27318
H          1.82648       -0.15196       -2.32175
H          0.27444       -3.27796       -0.83474
H          1.60606       -2.26305        1.53190
H          0.95496       -0.70202        3.30538
H         -0.71820        1.06971        2.83396
H         -1.76095        1.16627        0.61002
H         -2.31980        0.17015       -1.36417
H         -0.83573        0.02569       -2.28977
H         -1.76192       -1.43514       -1.76783
H          2.48620       -3.44511        0.08554
H          2.77557       -3.32584       -1.63489
H          2.99699       -1.89599       -0.61553
