28

C          1.08103        0.19244       -0.17399
C          0.52362       -0.84945        0.79488
C          0.80532       -0.50364        2.27027
C          0.34183        0.86229        2.77604
N         -1.11263        0.99350        2.90357
C         -1.93249        0.25901        3.74871
C         -3.20121        0.73885        3.58471
N         -3.12271        1.76671        2.66025
C         -1.84995        1.91630        2.26539
C         -4.23535        2.58749        2.20018
C         -0.95288       -1.11332        0.50707
H          0.53306        1.13807       -0.11387
H          1.00659       -0.16645       -1.20638
H          2.13742        0.39254        0.03314
H          1.05447       -1.79074        0.59613
H          0.38690       -1.29340        2.90604
H          1.89315       -0.54847        2.41516
H          0.75789        1.03471        3.77656
H          0.71659        1.67040        2.13961
H         -1.50320       -0.51636        4.35943
H         -4.15536        0.48729        4.01479
H         -1.48238        2.65081        1.55753
H         -4.39967        3.39264        2.92111
H         -3.99811        3.01249        1.22125
H         -5.13598        1.97337        2.11669
H         -1.07157       -1.55648       -0.48802
H         -1.37654       -1.81448        1.23321
H         -1.54515       -0.19529        0.52298
