 xtb: 6.7.1 (edcfbbe)
          12202402093D

 62 62  0     0  0            999 V2000
    1.0536   -0.8423   -0.6410 C   0  0  0  0  0  0  0  0  0  0  0  0
    0.3774    0.4136   -0.1048 C   0  0  0  0  0  0  0  0  0  0  0  0
    1.1484    1.6961   -0.4208 C   0  0  0  0  0  0  0  0  0  0  0  0
    1.2801    2.0232   -1.9098 C   0  0  0  0  0  0  0  0  0  0  0  0
   -0.0437    2.1852   -2.6596 C   0  0  0  0  0  0  0  0  0  0  0  0
   -0.9970    3.2249   -2.0670 C   0  0  0  0  0  0  0  0  0  0  0  0
   -0.4250    4.6398   -1.9627 C   0  0  0  0  0  0  0  0  0  0  0  0
   -0.0147    5.2773   -3.2916 C   0  0  0  0  0  0  0  0  0  0  0  0
   -1.1349    5.3839   -4.3292 C   0  0  0  0  0  0  0  0  0  0  0  0
   -2.3392    6.1690   -3.8120 C   0  0  0  0  0  0  0  0  0  0  0  0
   -3.3380    6.5394   -4.9099 C   0  0  0  0  0  0  0  0  0  0  0  0
   -3.8939    5.2900   -5.6078 C   0  0  0  0  0  0  0  0  0  0  0  0
   -5.1691    5.4793   -6.2741 N   0  0  0  0  0  0  0  0  0  0  0  0
   -6.3250    5.0279   -5.8616 C   0  0  0  0  0  0  0  0  0  0  0  0
   -7.5871    5.1382   -7.0055 S   0  0  0  0  0  0  0  0  0  0  0  0
   -6.4365    5.6947   -8.3059 C   0  0  0  0  0  0  0  0  0  0  0  0
   -5.1990    6.1893   -7.5588 C   0  0  0  0  0  0  0  0  0  0  0  0
   -5.2226    7.7170   -7.3702 C   0  0  0  0  0  0  0  0  0  0  0  0
   -6.3884    8.2361   -6.5375 C   0  0  0  0  0  0  0  0  0  0  0  0
   -6.6837    4.3794   -4.5596 C   0  0  0  0  0  0  0  0  0  0  0  0
   -6.2488    2.9049   -4.5622 C   0  0  0  0  0  0  0  0  0  0  0  0
   -6.1928    5.1231   -3.3156 C   0  0  0  0  0  0  0  0  0  0  0  0
    1.0700   -0.8474   -1.7279 H   0  0  0  0  0  0  0  0  0  0  0  0
    0.5200   -1.7292   -0.3070 H   0  0  0  0  0  0  0  0  0  0  0  0
    2.0779   -0.9045   -0.2808 H   0  0  0  0  0  0  0  0  0  0  0  0
   -0.6371    0.4793   -0.5029 H   0  0  0  0  0  0  0  0  0  0  0  0
    0.2938    0.3300    0.9814 H   0  0  0  0  0  0  0  0  0  0  0  0
    0.6653    2.5303    0.0924 H   0  0  0  0  0  0  0  0  0  0  0  0
    2.1557    1.6048   -0.0075 H   0  0  0  0  0  0  0  0  0  0  0  0
    1.8640    2.9410   -2.0064 H   0  0  0  0  0  0  0  0  0  0  0  0
    1.8505    1.2323   -2.4000 H   0  0  0  0  0  0  0  0  0  0  0  0
    0.1818    2.4478   -3.6962 H   0  0  0  0  0  0  0  0  0  0  0  0
   -0.5620    1.2241   -2.6804 H   0  0  0  0  0  0  0  0  0  0  0  0
   -1.9074    3.2407   -2.6736 H   0  0  0  0  0  0  0  0  0  0  0  0
   -1.2909    2.9058   -1.0657 H   0  0  0  0  0  0  0  0  0  0  0  0
   -1.1630    5.2765   -1.4692 H   0  0  0  0  0  0  0  0  0  0  0  0
    0.4532    4.6186   -1.3171 H   0  0  0  0  0  0  0  0  0  0  0  0
    0.3651    6.2800   -3.0830 H   0  0  0  0  0  0  0  0  0  0  0  0
    0.8044    4.7051   -3.7286 H   0  0  0  0  0  0  0  0  0  0  0  0
   -0.7330    5.8875   -5.2119 H   0  0  0  0  0  0  0  0  0  0  0  0
   -1.4415    4.3811   -4.6315 H   0  0  0  0  0  0  0  0  0  0  0  0
   -2.8462    5.5938   -3.0358 H   0  0  0  0  0  0  0  0  0  0  0  0
   -1.9856    7.0944   -3.3546 H   0  0  0  0  0  0  0  0  0  0  0  0
   -4.1584    7.1030   -4.4634 H   0  0  0  0  0  0  0  0  0  0  0  0
   -2.8338    7.1799   -5.6336 H   0  0  0  0  0  0  0  0  0  0  0  0
   -3.1822    4.9493   -6.3642 H   0  0  0  0  0  0  0  0  0  0  0  0
   -4.0099    4.4954   -4.8742 H   0  0  0  0  0  0  0  0  0  0  0  0
   -6.9089    6.4793   -8.8915 H   0  0  0  0  0  0  0  0  0  0  0  0
   -6.2329    4.8405   -8.9521 H   0  0  0  0  0  0  0  0  0  0  0  0
   -4.2940    5.9234   -8.1137 H   0  0  0  0  0  0  0  0  0  0  0  0
   -4.2873    8.0397   -6.9163 H   0  0  0  0  0  0  0  0  0  0  0  0
   -5.2632    8.1591   -8.3670 H   0  0  0  0  0  0  0  0  0  0  0  0
   -6.3920    7.8022   -5.5397 H   0  0  0  0  0  0  0  0  0  0  0  0
   -6.2963    9.3129   -6.4288 H   0  0  0  0  0  0  0  0  0  0  0  0
   -7.3470    8.0331   -7.0077 H   0  0  0  0  0  0  0  0  0  0  0  0
   -7.7797    4.3837   -4.5332 H   0  0  0  0  0  0  0  0  0  0  0  0
   -5.1684    2.7920   -4.5647 H   0  0  0  0  0  0  0  0  0  0  0  0
   -6.6350    2.4264   -3.6670 H   0  0  0  0  0  0  0  0  0  0  0  0
   -6.6545    2.3860   -5.4269 H   0  0  0  0  0  0  0  0  0  0  0  0
   -6.7158    4.7277   -2.4492 H   0  0  0  0  0  0  0  0  0  0  0  0
   -5.1295    4.9983   -3.1433 H   0  0  0  0  0  0  0  0  0  0  0  0
   -6.4185    6.1843   -3.3836 H   0  0  0  0  0  0  0  0  0  0  0  0
  1  2  1  0  0  0  0
  2  3  1  0  0  0  0
  3  4  1  0  0  0  0
  4  5  1  0  0  0  0
  5  6  1  0  0  0  0
  6  7  1  0  0  0  0
  7  8  1  0  0  0  0
  8  9  1  0  0  0  0
  9 10  1  0  0  0  0
 10 11  1  0  0  0  0
 11 12  1  0  0  0  0
 12 13  1  0  0  0  0
 13 14  4  0  0  0  0
 14 15  1  0  0  0  0
 15 16  1  0  0  0  0
 13 17  1  0  0  0  0
 16 17  1  0  0  0  0
 17 18  1  0  0  0  0
 18 19  1  0  0  0  0
 14 20  1  0  0  0  0
 20 21  1  0  0  0  0
 20 22  1  0  0  0  0
  1 23  1  0  0  0  0
  1 24  1  0  0  0  0
  1 25  1  0  0  0  0
  2 26  1  0  0  0  0
  2 27  1  0  0  0  0
  3 28  1  0  0  0  0
  3 29  1  0  0  0  0
  4 30  1  0  0  0  0
  4 31  1  0  0  0  0
  5 32  1  0  0  0  0
  5 33  1  0  0  0  0
  6 34  1  0  0  0  0
  6 35  1  0  0  0  0
  7 36  1  0  0  0  0
  7 37  1  0  0  0  0
  8 38  1  0  0  0  0
  8 39  1  0  0  0  0
  9 40  1  0  0  0  0
  9 41  1  0  0  0  0
 10 42  1  0  0  0  0
 10 43  1  0  0  0  0
 11 44  1  0  0  0  0
 11 45  1  0  0  0  0
 12 46  1  0  0  0  0
 12 47  1  0  0  0  0
 16 48  1  0  0  0  0
 16 49  1  0  0  0  0
 17 50  1  0  0  0  0
 18 51  1  0  0  0  0
 18 52  1  0  0  0  0
 19 53  1  0  0  0  0
 19 54  1  0  0  0  0
 19 55  1  0  0  0  0
 20 56  1  0  0  0  0
 21 57  1  0  0  0  0
 21 58  1  0  0  0  0
 21 59  1  0  0  0  0
 22 60  1  0  0  0  0
 22 61  1  0  0  0  0
 22 62  1  0  0  0  0
M  CHG  1   1   1
M  END
