23

C          1.27585       -0.22455        0.27332
C          0.62425        0.16884       -1.04318
C          0.83903       -0.85610       -2.15933
C          0.17846       -2.21331       -1.92859
N         -1.29419       -2.20812       -1.90722
C         -2.18416       -1.30041       -2.48254
C         -3.42328       -1.80787       -2.21960
N         -3.16588       -2.98173       -1.54103
N         -1.89341       -3.24443       -1.32293
N         -4.17211       -3.86037       -1.06084
H          0.79449       -1.10336        0.71160
H          1.18957        0.59543        0.99366
H          2.33982       -0.44248        0.13648
H         -0.44343        0.34782       -0.88036
H          1.05538        1.12346       -1.36882
H          0.48189       -0.43030       -3.10407
H          1.91719       -1.01476       -2.28792
H          0.47094       -2.89292       -2.73873
H          0.53562       -2.65741       -0.99234
H         -1.82085       -0.42508       -2.98667
H         -4.43351       -1.50576       -2.41705
H         -3.79571       -4.79236       -0.89718
H         -5.00523       -3.87713       -1.64381
