 xtb: 6.7.1 (edcfbbe)
          12202402093D

 30 30  0     0  0            999 V2000
    0.5267   -0.1041   -0.3053 C   0  0  0  0  0  0  0  0  0  0  0  0
    0.5973   -0.8321   -1.6383 C   0  0  0  0  0  0  0  0  0  0  0  0
    1.0962   -2.1724   -1.4980 O   0  0  0  0  0  0  0  0  0  0  0  0
    2.4296   -2.3060   -1.4021 C   0  0  0  0  0  0  0  0  0  0  0  0
    3.2009   -1.3932   -1.3944 O   0  0  0  0  0  0  0  0  0  0  0  0
    2.8227   -3.7711   -1.3093 C   0  0  0  0  0  0  0  0  0  0  0  0
    2.3316   -4.4049    0.0056 C   0  0  0  0  0  0  0  0  0  0  0  0
    0.8487   -4.3556    0.1078 C   0  0  0  0  0  0  0  0  0  0  0  0
    0.2000   -3.5744    1.0689 C   0  0  0  0  0  0  0  0  0  0  0  0
   -1.1723   -3.5159    1.1005 C   0  0  0  0  0  0  0  0  0  0  0  0
   -1.9211   -4.2016    0.2256 N   0  0  0  0  0  0  0  0  0  0  0  0
   -1.3319   -4.9776   -0.6925 C   0  0  0  0  0  0  0  0  0  0  0  0
    0.0364   -5.0763   -0.7728 C   0  0  0  0  0  0  0  0  0  0  0  0
   -3.3620   -4.1122    0.3047 C   0  0  0  0  0  0  0  0  0  0  0  0
   -0.1155   -0.6337    0.3955 H   0  0  0  0  0  0  0  0  0  0  0  0
    0.1267    0.8924   -0.4655 H   0  0  0  0  0  0  0  0  0  0  0  0
    1.5221   -0.0100    0.1207 H   0  0  0  0  0  0  0  0  0  0  0  0
   -0.3917   -0.9488   -2.0852 H   0  0  0  0  0  0  0  0  0  0  0  0
    1.2518   -0.2876   -2.3242 H   0  0  0  0  0  0  0  0  0  0  0  0
    2.4021   -4.2950   -2.1681 H   0  0  0  0  0  0  0  0  0  0  0  0
    3.9096   -3.8288   -1.3526 H   0  0  0  0  0  0  0  0  0  0  0  0
    2.6622   -5.4462    0.0190 H   0  0  0  0  0  0  0  0  0  0  0  0
    2.7897   -3.8857    0.8479 H   0  0  0  0  0  0  0  0  0  0  0  0
    0.7713   -3.0039    1.7846 H   0  0  0  0  0  0  0  0  0  0  0  0
   -1.6970   -2.9129    1.8276 H   0  0  0  0  0  0  0  0  0  0  0  0
   -1.9746   -5.5204   -1.3697 H   0  0  0  0  0  0  0  0  0  0  0  0
    0.4747   -5.7125   -1.5254 H   0  0  0  0  0  0  0  0  0  0  0  0
   -3.8204   -4.5542   -0.5769 H   0  0  0  0  0  0  0  0  0  0  0  0
   -3.7229   -4.6422    1.1884 H   0  0  0  0  0  0  0  0  0  0  0  0
   -3.6725   -3.0703    0.3791 H   0  0  0  0  0  0  0  0  0  0  0  0
  1  2  1  0  0  0  0
  2  3  1  0  0  0  0
  3  4  1  0  0  0  0
  4  5  2  0  0  0  0
  4  6  1  0  0  0  0
  6  7  1  0  0  0  0
  7  8  1  0  0  0  0
  8  9  4  0  0  0  0
  9 10  4  0  0  0  0
 10 11  4  0  0  0  0
 11 12  4  0  0  0  0
  8 13  4  0  0  0  0
 12 13  4  0  0  0  0
 11 14  1  0  0  0  0
  1 15  1  0  0  0  0
  1 16  1  0  0  0  0
  1 17  1  0  0  0  0
  2 18  1  0  0  0  0
  2 19  1  0  0  0  0
  6 20  1  0  0  0  0
  6 21  1  0  0  0  0
  7 22  1  0  0  0  0
  7 23  1  0  0  0  0
  9 24  1  0  0  0  0
 10 25  1  0  0  0  0
 12 26  1  0  0  0  0
 13 27  1  0  0  0  0
 14 28  1  0  0  0  0
 14 29  1  0  0  0  0
 14 30  1  0  0  0  0
M  CHG  1   1   1
M  END
