69

C          0.72280       -0.58240        0.14100
C          0.19243        0.84706       -0.02384
C          1.12705        1.83251       -0.73219
C          0.53633        2.56226       -1.94729
C         -0.85888        3.15500       -1.72719
C         -1.17689        4.34409       -2.63937
C         -0.93985        4.13266       -4.13672
C         -1.78578        3.04601       -4.80565
C         -3.30450        3.23900       -4.74244
C         -3.83395        4.59936       -5.20898
C         -3.40826        5.04216       -6.61214
C         -3.85751        4.13658       -7.76157
C         -5.37108        3.96192       -7.91767
C         -6.18359        5.25484       -8.05024
C         -5.75878        6.19813       -9.17849
C         -5.86827        5.58042      -10.56329
N          0.53094       -1.53057       -1.08157
C          0.84060       -2.95683       -0.56217
C          0.50224       -4.04103       -1.57739
C         -0.93879       -3.94105       -2.05003
C         -1.23447       -2.55664       -2.59990
C         -0.91566       -1.46083       -1.59167
C          1.52219       -1.16171       -2.18258
H          0.17057       -1.04630        0.96770
H          1.78779       -0.59528        0.40170
H         -0.81643        0.85233       -0.43764
H          0.06527        1.23476        0.99752
H          1.41588        2.60170       -0.00263
H          2.06600        1.35127       -1.02668
H          1.23943        3.35904       -2.22032
H          0.49644        1.87851       -2.80175
H         -1.61539        2.37614       -1.87891
H         -0.95946        3.49370       -0.68876
H         -2.21488        4.65070       -2.46573
H         -0.55715        5.19188       -2.31994
H         -1.10869        5.08939       -4.64386
H          0.11759        3.89967       -4.30950
H         -1.48239        2.97921       -5.85783
H         -1.54181        2.07105       -4.36677
H         -3.77676        2.44662       -5.33626
H         -3.64109        3.07543       -3.71127
H         -4.92856        4.58394       -5.14658
H         -3.51285        5.36893       -4.49680
H         -3.78685        6.05727       -6.77971
H         -2.31692        5.13077       -6.65450
H         -3.44660        4.53951       -8.69535
H         -3.40332        3.14550       -7.64464
H         -5.55596        3.32956       -8.79471
H         -5.75874        3.39683       -7.06144
H         -7.23708        4.98344       -8.19515
H         -6.14486        5.80576       -7.10309
H         -6.40147        7.08635       -9.14308
H         -4.73523        6.55302       -9.01776
H         -6.88051        5.20789      -10.74871
H         -5.63885        6.33064      -11.32710
H         -5.16483        4.75251      -10.69017
H          0.24079       -3.10727        0.34372
H          1.90176       -2.98468       -0.29020
H          0.66142       -5.02301       -1.11651
H          1.18131       -3.99560       -2.43561
H         -1.13259       -4.69641       -2.81948
H         -1.61611       -4.15601       -1.21404
H         -0.67263       -2.39610       -3.52725
H         -2.29516       -2.49379       -2.87010
H         -1.06043       -0.48311       -2.06183
H         -1.56904       -1.54363       -0.71501
H          1.23960       -0.19676       -2.60021
H          2.52556       -1.12230       -1.74910
H          1.48958       -1.91216       -2.97411
