48

C          0.43305       -0.41011        0.91025
C          0.62133        0.84736        1.73433
C          1.26761        2.09562        1.11447
N          0.73877        2.66090       -0.22270
C         -0.89819        2.81087       -0.12088
C         -1.45898        3.69533        0.99835
C         -1.49429        5.09990        0.91123
C         -2.03930        5.88022        1.93537
C         -2.59241        5.27277        3.05668
C         -2.62372        3.88659        3.14154
C         -2.07825        3.10783        2.11687
C         -1.52923        3.22306       -1.46639
C          1.34400        4.08352       -0.44767
C          2.84730        4.23653       -0.18243
C          3.46057        5.24819       -1.14409
C          1.05132        1.76866       -1.46410
C          2.49554        1.53896       -1.92723
C          3.37009        0.57762       -1.14345
H         -0.35406       -0.29912        0.16171
H          0.11824       -1.23196        1.56345
H          1.35923       -0.72126        0.42933
H         -0.33559        1.09910        2.18674
H          1.25401        0.57181        2.58970
H          1.17809        2.91138        1.84325
H          2.33269        1.91355        0.99546
H         -1.23621        1.78540        0.06040
H         -1.12307        5.62526        0.03354
H         -2.05104        6.96506        1.85063
H         -3.02641        5.87889        3.84904
H         -3.09498        3.40925        3.99910
H         -2.18999        2.02948        2.20149
H         -1.44727        2.42982       -2.21527
H         -2.60551        3.40042       -1.34711
H         -1.09543        4.13879       -1.87723
H          1.07342        4.38493       -1.46383
H          0.85809        4.75406        0.25713
H          2.99552        4.59975        0.84239
H          3.41075        3.30810       -0.24983
H          2.98266        6.22768       -1.04435
H          4.52997        5.36552       -0.94462
H          3.34730        4.91728       -2.18227
H          0.52309        0.82432       -1.34542
H          0.58890        2.28568       -2.30943
H          2.41444        1.10019       -2.93267
H          3.01987        2.47940       -2.10368
H          2.88850       -0.39630       -1.03562
H          4.30581        0.41062       -1.68922
H          3.65129        0.95156       -0.15989
