 xtb: 6.7.1 (edcfbbe)
          12202402093D

 65 64  0     0  0            999 V2000
    1.7818    1.2996    1.8811 C   0  0  0  0  0  0  0  0  0  0  0  0
    1.7119   -0.1987    1.6076 C   0  0  0  0  0  0  0  0  0  0  0  0
    1.2976   -1.0111    2.8365 C   0  0  0  0  0  0  0  0  0  0  0  0
   -0.1585   -0.8116    3.2685 C   0  0  0  0  0  0  0  0  0  0  0  0
   -1.2821   -1.2692    2.3293 C   0  0  0  0  0  0  0  0  0  0  0  0
   -1.5744   -2.7357    2.1986 N   0  0  0  0  0  0  0  0  0  0  0  0
   -1.3765   -3.4489    3.5065 C   0  0  0  0  0  0  0  0  0  0  0  0
   -2.1719   -2.9143    4.7089 C   0  0  0  0  0  0  0  0  0  0  0  0
   -3.1391   -3.9519    5.2930 C   0  0  0  0  0  0  0  0  0  0  0  0
   -2.4472   -5.1431    5.9599 C   0  0  0  0  0  0  0  0  0  0  0  0
   -1.6622   -4.7620    7.2091 C   0  0  0  0  0  0  0  0  0  0  0  0
   -3.0065   -2.9475    1.8069 C   0  0  0  0  0  0  0  0  0  0  0  0
   -3.6346   -1.9565    0.8231 C   0  0  0  0  0  0  0  0  0  0  0  0
   -4.9021   -2.5523    0.1975 C   0  0  0  0  0  0  0  0  0  0  0  0
   -5.9959   -2.9333    1.1974 C   0  0  0  0  0  0  0  0  0  0  0  0
   -6.4881   -1.7587    2.0345 C   0  0  0  0  0  0  0  0  0  0  0  0
   -0.6351   -3.4070    1.2236 C   0  0  0  0  0  0  0  0  0  0  0  0
   -0.9625   -3.4270   -0.2754 C   0  0  0  0  0  0  0  0  0  0  0  0
   -0.4740   -2.2308   -1.0998 C   0  0  0  0  0  0  0  0  0  0  0  0
    1.0309   -2.2661   -1.3843 C   0  0  0  0  0  0  0  0  0  0  0  0
    1.4075   -3.2943   -2.4442 C   0  0  0  0  0  0  0  0  0  0  0  0
    0.8032    1.7118    2.1143 H   0  0  0  0  0  0  0  0  0  0  0  0
    2.1624    1.8185    1.0060 H   0  0  0  0  0  0  0  0  0  0  0  0
    2.4500    1.5043    2.7139 H   0  0  0  0  0  0  0  0  0  0  0  0
    1.0280   -0.3793    0.7774 H   0  0  0  0  0  0  0  0  0  0  0  0
    2.6999   -0.5394    1.2933 H   0  0  0  0  0  0  0  0  0  0  0  0
    1.5208   -2.0683    2.6759 H   0  0  0  0  0  0  0  0  0  0  0  0
    1.9220   -0.6922    3.6736 H   0  0  0  0  0  0  0  0  0  0  0  0
   -0.2923   -1.2417    4.2585 H   0  0  0  0  0  0  0  0  0  0  0  0
   -0.3130    0.2632    3.3822 H   0  0  0  0  0  0  0  0  0  0  0  0
   -2.1956   -0.8000    2.6950 H   0  0  0  0  0  0  0  0  0  0  0  0
   -1.0923   -0.8858    1.3290 H   0  0  0  0  0  0  0  0  0  0  0  0
   -1.6696   -4.4878    3.3397 H   0  0  0  0  0  0  0  0  0  0  0  0
   -0.3081   -3.4370    3.7221 H   0  0  0  0  0  0  0  0  0  0  0  0
   -1.4837   -2.6192    5.5005 H   0  0  0  0  0  0  0  0  0  0  0  0
   -2.7391   -2.0226    4.4434 H   0  0  0  0  0  0  0  0  0  0  0  0
   -3.7584   -3.4532    6.0404 H   0  0  0  0  0  0  0  0  0  0  0  0
   -3.8070   -4.3226    4.5113 H   0  0  0  0  0  0  0  0  0  0  0  0
   -3.2187   -5.8619    6.2397 H   0  0  0  0  0  0  0  0  0  0  0  0
   -1.7812   -5.6427    5.2528 H   0  0  0  0  0  0  0  0  0  0  0  0
   -2.2971   -4.2260    7.9100 H   0  0  0  0  0  0  0  0  0  0  0  0
   -1.2938   -5.6572    7.7020 H   0  0  0  0  0  0  0  0  0  0  0  0
   -0.8038   -4.1379    6.9713 H   0  0  0  0  0  0  0  0  0  0  0  0
   -3.0761   -3.9597    1.4026 H   0  0  0  0  0  0  0  0  0  0  0  0
   -3.6004   -2.9185    2.7189 H   0  0  0  0  0  0  0  0  0  0  0  0
   -3.9054   -1.0317    1.3318 H   0  0  0  0  0  0  0  0  0  0  0  0
   -2.9514   -1.6983    0.0170 H   0  0  0  0  0  0  0  0  0  0  0  0
   -5.3080   -1.8143   -0.4959 H   0  0  0  0  0  0  0  0  0  0  0  0
   -4.6365   -3.4366   -0.3868 H   0  0  0  0  0  0  0  0  0  0  0  0
   -6.8375   -3.3300    0.6280 H   0  0  0  0  0  0  0  0  0  0  0  0
   -5.6501   -3.7353    1.8532 H   0  0  0  0  0  0  0  0  0  0  0  0
   -6.7923   -0.9360    1.3925 H   0  0  0  0  0  0  0  0  0  0  0  0
   -7.3468   -2.0600    2.6281 H   0  0  0  0  0  0  0  0  0  0  0  0
   -5.7227   -1.3979    2.7188 H   0  0  0  0  0  0  0  0  0  0  0  0
    0.3446   -2.9531    1.3574 H   0  0  0  0  0  0  0  0  0  0  0  0
   -0.5687   -4.4494    1.5403 H   0  0  0  0  0  0  0  0  0  0  0  0
   -0.4580   -4.3105   -0.6711 H   0  0  0  0  0  0  0  0  0  0  0  0
   -2.0234   -3.5892   -0.4466 H   0  0  0  0  0  0  0  0  0  0  0  0
   -0.9991   -2.2420   -2.0566 H   0  0  0  0  0  0  0  0  0  0  0  0
   -0.7285   -1.2874   -0.6126 H   0  0  0  0  0  0  0  0  0  0  0  0
    1.3397   -1.2806   -1.7357 H   0  0  0  0  0  0  0  0  0  0  0  0
    1.5859   -2.4753   -0.4677 H   0  0  0  0  0  0  0  0  0  0  0  0
    0.8780   -3.0949   -3.3726 H   0  0  0  0  0  0  0  0  0  0  0  0
    2.4742   -3.2471   -2.6450 H   0  0  0  0  0  0  0  0  0  0  0  0
    1.1722   -4.3068   -2.1249 H   0  0  0  0  0  0  0  0  0  0  0  0
  1  2  1  0  0  0  0
  2  3  1  0  0  0  0
  3  4  1  0  0  0  0
  4  5  1  0  0  0  0
  5  6  1  0  0  0  0
  6  7  1  0  0  0  0
  7  8  1  0  0  0  0
  8  9  1  0  0  0  0
  9 10  1  0  0  0  0
 10 11  1  0  0  0  0
  6 12  1  0  0  0  0
 12 13  1  0  0  0  0
 13 14  1  0  0  0  0
 14 15  1  0  0  0  0
 15 16  1  0  0  0  0
  6 17  1  0  0  0  0
 17 18  1  0  0  0  0
 18 19  1  0  0  0  0
 19 20  1  0  0  0  0
 20 21  1  0  0  0  0
  1 22  1  0  0  0  0
  1 23  1  0  0  0  0
  1 24  1  0  0  0  0
  2 25  1  0  0  0  0
  2 26  1  0  0  0  0
  3 27  1  0  0  0  0
  3 28  1  0  0  0  0
  4 29  1  0  0  0  0
  4 30  1  0  0  0  0
  5 31  1  0  0  0  0
  5 32  1  0  0  0  0
  7 33  1  0  0  0  0
  7 34  1  0  0  0  0
  8 35  1  0  0  0  0
  8 36  1  0  0  0  0
  9 37  1  0  0  0  0
  9 38  1  0  0  0  0
 10 39  1  0  0  0  0
 10 40  1  0  0  0  0
 11 41  1  0  0  0  0
 11 42  1  0  0  0  0
 11 43  1  0  0  0  0
 12 44  1  0  0  0  0
 12 45  1  0  0  0  0
 13 46  1  0  0  0  0
 13 47  1  0  0  0  0
 14 48  1  0  0  0  0
 14 49  1  0  0  0  0
 15 50  1  0  0  0  0
 15 51  1  0  0  0  0
 16 52  1  0  0  0  0
 16 53  1  0  0  0  0
 16 54  1  0  0  0  0
 17 55  1  0  0  0  0
 17 56  1  0  0  0  0
 18 57  1  0  0  0  0
 18 58  1  0  0  0  0
 19 59  1  0  0  0  0
 19 60  1  0  0  0  0
 20 61  1  0  0  0  0
 20 62  1  0  0  0  0
 21 63  1  0  0  0  0
 21 64  1  0  0  0  0
 21 65  1  0  0  0  0
M  CHG  1   1   1
M  END
