30

C          0.96352        0.33170       -0.41542
C          1.06192       -0.30177       -1.79189
O          1.21070       -1.72877       -1.69421
C          2.47739       -2.16836       -1.45283
O          3.44423       -1.45445       -1.23312
C          2.53068       -3.67420       -1.44619
C          2.16565       -4.24368       -0.07875
C          0.67254       -4.38747        0.11693
C         -0.06860       -3.38602        0.74335
C         -1.44824       -3.51647        0.85981
N         -2.07931       -4.60978        0.37645
C         -1.38125       -5.60736       -0.21025
C         -0.00118       -5.51387       -0.35723
C         -3.54157       -4.72025        0.50609
H          0.15308       -0.12273        0.16296
H          0.77714        1.40634       -0.49763
H          1.88466        0.18401        0.15667
H          0.13288       -0.11934       -2.34211
H          1.87664        0.13533       -2.38036
H          1.90630       -4.06927       -2.25566
H          3.56342       -3.95021       -1.69302
H          2.62095       -5.23649        0.03038
H          2.58620       -3.62988        0.72791
H          0.42064       -2.49370        1.13025
H         -2.05563       -2.74996        1.33276
H         -1.93469       -6.47276       -0.56387
H          0.54285       -6.32155       -0.84455
H         -3.92841       -5.35256       -0.29729
H         -3.75223       -5.16056        1.48355
H         -3.98179       -3.72305        0.42274
