 xtb: 6.7.1 (edcfbbe)
          12202402093D

 48 48  0     0  0            999 V2000
    0.7814    0.5438    2.6066 C   0  0  0  0  0  0  0  0  0  0  0  0
    0.3909    0.8460    1.1619 C   0  0  0  0  0  0  0  0  0  0  0  0
    1.0701    2.1448    0.7307 C   0  0  0  0  0  0  0  0  0  0  0  0
    0.6393    2.7458   -0.5670 N   0  0  0  0  0  0  0  0  0  0  0  0
   -0.8527    3.1120   -0.4843 C   0  0  0  0  0  0  0  0  0  0  0  0
   -1.3347    3.5658    0.8815 C   0  0  0  0  0  0  0  0  0  0  0  0
   -0.8837    4.7139    1.5265 C   0  0  0  0  0  0  0  0  0  0  0  0
   -1.4071    5.0887    2.7522 C   0  0  0  0  0  0  0  0  0  0  0  0
   -2.4036    4.3372    3.3494 C   0  0  0  0  0  0  0  0  0  0  0  0
   -2.8845    3.2114    2.7044 C   0  0  0  0  0  0  0  0  0  0  0  0
   -2.3545    2.8329    1.4841 C   0  0  0  0  0  0  0  0  0  0  0  0
   -1.3028    4.1310   -1.5316 C   0  0  0  0  0  0  0  0  0  0  0  0
    1.4520    3.9745   -0.8586 C   0  0  0  0  0  0  0  0  0  0  0  0
    2.8962    4.0431   -0.3561 C   0  0  0  0  0  0  0  0  0  0  0  0
    3.5497    5.3028   -0.9219 C   0  0  0  0  0  0  0  0  0  0  0  0
    0.7543    1.7645   -1.6972 C   0  0  0  0  0  0  0  0  0  0  0  0
    2.1358    1.3827   -2.2388 C   0  0  0  0  0  0  0  0  0  0  0  0
    2.9224    0.3555   -1.4313 C   0  0  0  0  0  0  0  0  0  0  0  0
    1.8606    0.4721    2.7112 H   0  0  0  0  0  0  0  0  0  0  0  0
    0.3472   -0.4009    2.9188 H   0  0  0  0  0  0  0  0  0  0  0  0
    0.4185    1.3219    3.2734 H   0  0  0  0  0  0  0  0  0  0  0  0
    0.7116    0.0133    0.5366 H   0  0  0  0  0  0  0  0  0  0  0  0
   -0.6927    0.9257    1.1098 H   0  0  0  0  0  0  0  0  0  0  0  0
    0.8974    2.8973    1.5023 H   0  0  0  0  0  0  0  0  0  0  0  0
    2.1389    1.9559    0.6705 H   0  0  0  0  0  0  0  0  0  0  0  0
   -1.3713    2.1739   -0.7020 H   0  0  0  0  0  0  0  0  0  0  0  0
   -0.1223    5.3445    1.0936 H   0  0  0  0  0  0  0  0  0  0  0  0
   -1.0363    5.9791    3.2358 H   0  0  0  0  0  0  0  0  0  0  0  0
   -2.8099    4.6351    4.3027 H   0  0  0  0  0  0  0  0  0  0  0  0
   -3.6746    2.6257    3.1473 H   0  0  0  0  0  0  0  0  0  0  0  0
   -2.7595    1.9629    0.9863 H   0  0  0  0  0  0  0  0  0  0  0  0
   -0.9771    3.8822   -2.5381 H   0  0  0  0  0  0  0  0  0  0  0  0
   -2.3909    4.1340   -1.5330 H   0  0  0  0  0  0  0  0  0  0  0  0
   -0.9831    5.1418   -1.2979 H   0  0  0  0  0  0  0  0  0  0  0  0
    1.4489    4.1148   -1.9406 H   0  0  0  0  0  0  0  0  0  0  0  0
    0.9358    4.8227   -0.4167 H   0  0  0  0  0  0  0  0  0  0  0  0
    2.9202    4.1023    0.7325 H   0  0  0  0  0  0  0  0  0  0  0  0
    3.4847    3.1813   -0.6654 H   0  0  0  0  0  0  0  0  0  0  0  0
    3.0058    6.1943   -0.6202 H   0  0  0  0  0  0  0  0  0  0  0  0
    4.5673    5.3872   -0.5533 H   0  0  0  0  0  0  0  0  0  0  0  0
    3.5842    5.2720   -2.0083 H   0  0  0  0  0  0  0  0  0  0  0  0
    0.2403    0.8524   -1.3922 H   0  0  0  0  0  0  0  0  0  0  0  0
    0.1972    2.1968   -2.5300 H   0  0  0  0  0  0  0  0  0  0  0  0
    1.9364    0.9367   -3.2166 H   0  0  0  0  0  0  0  0  0  0  0  0
    2.7462    2.2645   -2.4247 H   0  0  0  0  0  0  0  0  0  0  0  0
    2.3150   -0.5220   -1.2254 H   0  0  0  0  0  0  0  0  0  0  0  0
    3.7811    0.0316   -2.0134 H   0  0  0  0  0  0  0  0  0  0  0  0
    3.2994    0.7468   -0.4906 H   0  0  0  0  0  0  0  0  0  0  0  0
  1  2  1  0  0  0  0
  2  3  1  0  0  0  0
  3  4  1  0  0  0  0
  4  5  1  0  0  0  0
  5  6  1  0  0  0  0
  6  7  4  0  0  0  0
  7  8  4  0  0  0  0
  8  9  4  0  0  0  0
  9 10  4  0  0  0  0
  6 11  4  0  0  0  0
 10 11  4  0  0  0  0
  5 12  1  0  0  0  0
  4 13  1  0  0  0  0
 13 14  1  0  0  0  0
 14 15  1  0  0  0  0
  4 16  1  0  0  0  0
 16 17  1  0  0  0  0
 17 18  1  0  0  0  0
  1 19  1  0  0  0  0
  1 20  1  0  0  0  0
  1 21  1  0  0  0  0
  2 22  1  0  0  0  0
  2 23  1  0  0  0  0
  3 24  1  0  0  0  0
  3 25  1  0  0  0  0
  5 26  1  0  0  0  0
  7 27  1  0  0  0  0
  8 28  1  0  0  0  0
  9 29  1  0  0  0  0
 10 30  1  0  0  0  0
 11 31  1  0  0  0  0
 12 32  1  0  0  0  0
 12 33  1  0  0  0  0
 12 34  1  0  0  0  0
 13 35  1  0  0  0  0
 13 36  1  0  0  0  0
 14 37  1  0  0  0  0
 14 38  1  0  0  0  0
 15 39  1  0  0  0  0
 15 40  1  0  0  0  0
 15 41  1  0  0  0  0
 16 42  1  0  0  0  0
 16 43  1  0  0  0  0
 17 44  1  0  0  0  0
 17 45  1  0  0  0  0
 18 46  1  0  0  0  0
 18 47  1  0  0  0  0
 18 48  1  0  0  0  0
M  CHG  1   1   1
M  END
