30

C          1.16178        0.39692        0.05607
C          0.81559        0.83918       -1.35813
C          1.12288       -0.18088       -2.47047
C          0.47618       -1.59898       -2.32098
N         -1.07110       -1.74440       -2.39569
C         -1.65970       -1.00738       -3.59451
C         -1.36884       -3.24050       -2.57860
C         -1.77382       -1.29456       -1.12823
O          0.70483        0.39942       -3.71738
C          2.64718       -0.38153       -2.58659
H          0.61594       -0.50199        0.35046
H          0.90171        1.18841        0.76672
H          2.23230        0.19982        0.16381
H         -0.23152        1.15095       -1.40883
H          1.36845        1.76588       -1.56723
H          0.84635       -2.21505       -3.15144
H          0.79013       -2.08098       -1.38777
H         -1.09376       -1.28421       -4.48840
H         -2.70420       -1.31666       -3.70607
H         -1.63085        0.06753       -3.40265
H         -0.94140       -3.78106       -1.72861
H         -2.45359       -3.38101       -2.61309
H         -0.91551       -3.57448       -3.51673
H         -1.30360       -1.78788       -0.27362
H         -1.71299       -0.21150       -1.04058
H         -2.82764       -1.58434       -1.19474
H          1.22061        1.21552       -3.86507
H          3.16415        0.57927       -2.69237
H          3.06084       -0.90443       -1.71893
H          2.89461       -0.95984       -3.48475
