 xtb: 6.7.1 (edcfbbe)
          12202402093D

 69 69  0     0  0            999 V2000
    1.2281   -0.4601    0.4598 C   0  0  0  0  0  0  0  0  0  0  0  0
    1.1979    0.9943    0.9141 C   0  0  0  0  0  0  0  0  0  0  0  0
    1.4736    1.9863   -0.2166 C   0  0  0  0  0  0  0  0  0  0  0  0
    0.4537    1.9679   -1.3572 C   0  0  0  0  0  0  0  0  0  0  0  0
   -0.9867    2.2743   -0.9436 C   0  0  0  0  0  0  0  0  0  0  0  0
   -1.1955    3.6377   -0.2814 C   0  0  0  0  0  0  0  0  0  0  0  0
   -0.7861    4.8408   -1.1330 C   0  0  0  0  0  0  0  0  0  0  0  0
   -1.4985    4.9513   -2.4824 C   0  0  0  0  0  0  0  0  0  0  0  0
   -3.0230    5.0507   -2.4030 C   0  0  0  0  0  0  0  0  0  0  0  0
   -3.5536    6.2541   -1.6211 C   0  0  0  0  0  0  0  0  0  0  0  0
   -3.1072    7.6182   -2.1514 C   0  0  0  0  0  0  0  0  0  0  0  0
   -3.4585    7.8882   -3.6159 C   0  0  0  0  0  0  0  0  0  0  0  0
   -4.9510    7.8196   -3.9446 C   0  0  0  0  0  0  0  0  0  0  0  0
   -5.8239    8.8260   -3.1925 C   0  0  0  0  0  0  0  0  0  0  0  0
   -5.4533   10.2951   -3.4131 C   0  0  0  0  0  0  0  0  0  0  0  0
   -5.4264   10.7397   -4.8781 C   0  0  0  0  0  0  0  0  0  0  0  0
   -6.7434   10.5542   -5.6309 C   0  0  0  0  0  0  0  0  0  0  0  0
   -7.8781   11.4620   -5.1343 C   0  0  0  0  0  0  0  0  0  0  0  0
   -7.5805   12.8514   -5.4256 N   0  0  0  0  0  0  0  0  0  0  0  0
   -6.9744   13.6226   -4.5139 C   0  0  0  0  0  0  0  0  0  0  0  0
   -6.5982   14.9139   -4.8026 C   0  0  0  0  0  0  0  0  0  0  0  0
   -6.8398   15.4533   -6.0686 C   0  0  0  0  0  0  0  0  0  0  0  0
   -7.4781   14.6200   -6.9964 C   0  0  0  0  0  0  0  0  0  0  0  0
   -7.8286   13.3391   -6.6507 C   0  0  0  0  0  0  0  0  0  0  0  0
   -6.4591   16.8402   -6.4183 C   0  0  0  0  0  0  0  0  0  0  0  0
    0.4130   -0.6737   -0.2270 H   0  0  0  0  0  0  0  0  0  0  0  0
    1.1308   -1.1241    1.3157 H   0  0  0  0  0  0  0  0  0  0  0  0
    2.1679   -0.6833   -0.0408 H   0  0  0  0  0  0  0  0  0  0  0  0
    0.2318    1.2128    1.3726 H   0  0  0  0  0  0  0  0  0  0  0  0
    1.9609    1.1379    1.6835 H   0  0  0  0  0  0  0  0  0  0  0  0
    1.5234    2.9922    0.2060 H   0  0  0  0  0  0  0  0  0  0  0  0
    2.4567    1.7644   -0.6403 H   0  0  0  0  0  0  0  0  0  0  0  0
    0.7732    2.6898   -2.1121 H   0  0  0  0  0  0  0  0  0  0  0  0
    0.4696    0.9848   -1.8319 H   0  0  0  0  0  0  0  0  0  0  0  0
   -1.6181    2.2057   -1.8325 H   0  0  0  0  0  0  0  0  0  0  0  0
   -1.3310    1.5045   -0.2502 H   0  0  0  0  0  0  0  0  0  0  0  0
   -2.2505    3.7287   -0.0125 H   0  0  0  0  0  0  0  0  0  0  0  0
   -0.6270    3.6726    0.6502 H   0  0  0  0  0  0  0  0  0  0  0  0
   -0.9697    5.7480   -0.5526 H   0  0  0  0  0  0  0  0  0  0  0  0
    0.2886    4.7964   -1.3207 H   0  0  0  0  0  0  0  0  0  0  0  0
   -1.1055    5.8262   -3.0056 H   0  0  0  0  0  0  0  0  0  0  0  0
   -1.2476    4.0800   -3.0904 H   0  0  0  0  0  0  0  0  0  0  0  0
   -3.4172    5.0787   -3.4216 H   0  0  0  0  0  0  0  0  0  0  0  0
   -3.4160    4.1454   -1.9370 H   0  0  0  0  0  0  0  0  0  0  0  0
   -4.6452    6.2055   -1.6181 H   0  0  0  0  0  0  0  0  0  0  0  0
   -3.2311    6.1749   -0.5814 H   0  0  0  0  0  0  0  0  0  0  0  0
   -3.5506    8.3928   -1.5208 H   0  0  0  0  0  0  0  0  0  0  0  0
   -2.0245    7.7050   -2.0442 H   0  0  0  0  0  0  0  0  0  0  0  0
   -3.0679    8.8721   -3.8873 H   0  0  0  0  0  0  0  0  0  0  0  0
   -2.9429    7.1600   -4.2438 H   0  0  0  0  0  0  0  0  0  0  0  0
   -5.0740    7.9593   -5.0215 H   0  0  0  0  0  0  0  0  0  0  0  0
   -5.3192    6.8194   -3.7130 H   0  0  0  0  0  0  0  0  0  0  0  0
   -6.8663    8.6620   -3.4781 H   0  0  0  0  0  0  0  0  0  0  0  0
   -5.7568    8.6235   -2.1229 H   0  0  0  0  0  0  0  0  0  0  0  0
   -6.1532   10.9109   -2.8408 H   0  0  0  0  0  0  0  0  0  0  0  0
   -4.4627   10.4759   -2.9945 H   0  0  0  0  0  0  0  0  0  0  0  0
   -5.1155   11.7885   -4.9267 H   0  0  0  0  0  0  0  0  0  0  0  0
   -4.6630   10.1635   -5.4002 H   0  0  0  0  0  0  0  0  0  0  0  0
   -6.5791   10.7441   -6.6941 H   0  0  0  0  0  0  0  0  0  0  0  0
   -7.0770    9.5228   -5.5283 H   0  0  0  0  0  0  0  0  0  0  0  0
   -8.8099   11.1902   -5.6339 H   0  0  0  0  0  0  0  0  0  0  0  0
   -8.0094   11.3410   -4.0589 H   0  0  0  0  0  0  0  0  0  0  0  0
   -6.8001   13.1920   -3.5394 H   0  0  0  0  0  0  0  0  0  0  0  0
   -6.1139   15.5046   -4.0413 H   0  0  0  0  0  0  0  0  0  0  0  0
   -7.6971   14.9808   -7.9890 H   0  0  0  0  0  0  0  0  0  0  0  0
   -8.3181   12.6790   -7.3513 H   0  0  0  0  0  0  0  0  0  0  0  0
   -7.3550   17.4587   -6.4890 H   0  0  0  0  0  0  0  0  0  0  0  0
   -5.8012   17.2752   -5.6719 H   0  0  0  0  0  0  0  0  0  0  0  0
   -5.9750   16.8726   -7.3926 H   0  0  0  0  0  0  0  0  0  0  0  0
  1  2  1  0  0  0  0
  2  3  1  0  0  0  0
  3  4  1  0  0  0  0
  4  5  1  0  0  0  0
  5  6  1  0  0  0  0
  6  7  1  0  0  0  0
  7  8  1  0  0  0  0
  8  9  1  0  0  0  0
  9 10  1  0  0  0  0
 10 11  1  0  0  0  0
 11 12  1  0  0  0  0
 12 13  1  0  0  0  0
 13 14  1  0  0  0  0
 14 15  1  0  0  0  0
 15 16  1  0  0  0  0
 16 17  1  0  0  0  0
 17 18  1  0  0  0  0
 18 19  1  0  0  0  0
 19 20  4  0  0  0  0
 20 21  4  0  0  0  0
 21 22  4  0  0  0  0
 22 23  4  0  0  0  0
 19 24  4  0  0  0  0
 23 24  2  0  0  0  0
 22 25  1  0  0  0  0
  1 26  1  0  0  0  0
  1 27  1  0  0  0  0
  1 28  1  0  0  0  0
  2 29  1  0  0  0  0
  2 30  1  0  0  0  0
  3 31  1  0  0  0  0
  3 32  1  0  0  0  0
  4 33  1  0  0  0  0
  4 34  1  0  0  0  0
  5 35  1  0  0  0  0
  5 36  1  0  0  0  0
  6 37  1  0  0  0  0
  6 38  1  0  0  0  0
  7 39  1  0  0  0  0
  7 40  1  0  0  0  0
  8 41  1  0  0  0  0
  8 42  1  0  0  0  0
  9 43  1  0  0  0  0
  9 44  1  0  0  0  0
 10 45  1  0  0  0  0
 10 46  1  0  0  0  0
 11 47  1  0  0  0  0
 11 48  1  0  0  0  0
 12 49  1  0  0  0  0
 12 50  1  0  0  0  0
 13 51  1  0  0  0  0
 13 52  1  0  0  0  0
 14 53  1  0  0  0  0
 14 54  1  0  0  0  0
 15 55  1  0  0  0  0
 15 56  1  0  0  0  0
 16 57  1  0  0  0  0
 16 58  1  0  0  0  0
 17 59  1  0  0  0  0
 17 60  1  0  0  0  0
 18 61  1  0  0  0  0
 18 62  1  0  0  0  0
 20 63  1  0  0  0  0
 21 64  1  0  0  0  0
 23 65  1  0  0  0  0
 24 66  1  0  0  0  0
 25 67  1  0  0  0  0
 25 68  1  0  0  0  0
 25 69  1  0  0  0  0
M  CHG  1   1   1
M  END
