 xtb: 6.7.1 (edcfbbe)
          12202402093D

 36 38  0     0  0            999 V2000
    0.9712   -0.6834   -0.0207 C   0  0  0  0  0  0  0  0  0  0  0  0
    0.3449   -0.3605   -1.1359 C   0  0  0  0  0  0  0  0  0  0  0  0
   -1.1432   -0.1750   -1.2362 C   0  0  0  0  0  0  0  0  0  0  0  0
   -1.4700    1.1030   -1.8386 N   0  0  0  0  0  0  0  0  0  0  0  0
   -0.9173    2.2662   -1.5109 C   0  0  0  0  0  0  0  0  0  0  0  0
   -1.3968    3.2586   -2.2525 N   0  0  0  0  0  0  0  0  0  0  0  0
   -2.3284    2.7230   -3.1172 C   0  0  0  0  0  0  0  0  0  0  0  0
   -2.3747    1.3391   -2.8521 C   0  0  0  0  0  0  0  0  0  0  0  0
   -3.2230    0.4968   -3.5627 C   0  0  0  0  0  0  0  0  0  0  0  0
   -4.0078    1.0755   -4.5372 C   0  0  0  0  0  0  0  0  0  0  0  0
   -3.9542    2.4464   -4.8081 C   0  0  0  0  0  0  0  0  0  0  0  0
   -3.1189    3.2920   -4.1096 C   0  0  0  0  0  0  0  0  0  0  0  0
   -1.0761    4.6646   -2.0897 C   0  0  0  0  0  0  0  0  0  0  0  0
   -1.9137    5.2617   -0.9814 C   0  0  0  0  0  0  0  0  0  0  0  0
   -1.3888    5.3974    0.2979 C   0  0  0  0  0  0  0  0  0  0  0  0
   -2.1591    5.9127    1.3234 C   0  0  0  0  0  0  0  0  0  0  0  0
   -3.4698    6.2882    1.0686 C   0  0  0  0  0  0  0  0  0  0  0  0
   -4.0081    6.1588   -0.2034 C   0  0  0  0  0  0  0  0  0  0  0  0
   -3.2280    5.6449   -1.2218 C   0  0  0  0  0  0  0  0  0  0  0  0
   -4.5402    6.9844    2.4759 Br  0  0  0  0  0  0  0  0  0  0  0  0
    0.4467   -0.8283    0.9089 H   0  0  0  0  0  0  0  0  0  0  0  0
    2.0349   -0.8388    0.0027 H   0  0  0  0  0  0  0  0  0  0  0  0
    0.8842   -0.2336   -2.0646 H   0  0  0  0  0  0  0  0  0  0  0  0
   -1.5721   -0.9567   -1.8676 H   0  0  0  0  0  0  0  0  0  0  0  0
   -1.6025   -0.2383   -0.2450 H   0  0  0  0  0  0  0  0  0  0  0  0
   -0.1712    2.3807   -0.7470 H   0  0  0  0  0  0  0  0  0  0  0  0
   -3.2711   -0.5615   -3.3657 H   0  0  0  0  0  0  0  0  0  0  0  0
   -4.6795    0.4563   -5.1098 H   0  0  0  0  0  0  0  0  0  0  0  0
   -4.5834    2.8497   -5.5853 H   0  0  0  0  0  0  0  0  0  0  0  0
   -3.0813    4.3454   -4.3332 H   0  0  0  0  0  0  0  0  0  0  0  0
   -0.0140    4.7533   -1.8522 H   0  0  0  0  0  0  0  0  0  0  0  0
   -1.2710    5.1684   -3.0377 H   0  0  0  0  0  0  0  0  0  0  0  0
   -0.3651    5.1161    0.4975 H   0  0  0  0  0  0  0  0  0  0  0  0
   -1.7472    6.0258    2.3133 H   0  0  0  0  0  0  0  0  0  0  0  0
   -5.0257    6.4611   -0.3936 H   0  0  0  0  0  0  0  0  0  0  0  0
   -3.6501    5.5512   -2.2105 H   0  0  0  0  0  0  0  0  0  0  0  0
  1  2  2  0  0  0  0
  2  3  1  0  0  0  0
  3  4  1  0  0  0  0
  4  5  4  0  0  0  0
  5  6  4  0  0  0  0
  6  7  1  0  0  0  0
  4  8  1  0  0  0  0
  7  8  4  0  0  0  0
  8  9  4  0  0  0  0
  9 10  4  0  0  0  0
 10 11  4  0  0  0  0
  7 12  4  0  0  0  0
 11 12  4  0  0  0  0
  6 13  1  0  0  0  0
 13 14  1  0  0  0  0
 14 15  4  0  0  0  0
 15 16  4  0  0  0  0
 16 17  4  0  0  0  0
 17 18  4  0  0  0  0
 14 19  4  0  0  0  0
 18 19  4  0  0  0  0
 17 20  1  0  0  0  0
  1 21  1  0  0  0  0
  1 22  1  0  0  0  0
  2 23  1  0  0  0  0
  3 24  1  0  0  0  0
  3 25  1  0  0  0  0
  5 26  1  0  0  0  0
  9 27  1  0  0  0  0
 10 28  1  0  0  0  0
 11 29  1  0  0  0  0
 12 30  1  0  0  0  0
 13 31  1  0  0  0  0
 13 32  1  0  0  0  0
 15 33  1  0  0  0  0
 16 34  1  0  0  0  0
 18 35  1  0  0  0  0
 19 36  1  0  0  0  0
M  CHG  1   1   1
M  END
