 xtb: 6.7.1 (edcfbbe)
          12202402093D

 37 38  0     0  0            999 V2000
    2.1414    1.5131   -0.7694 C   0  0  0  0  0  0  0  0  0  0  0  0
    1.0890    0.5251   -0.3852 C   0  0  0  0  0  0  0  0  0  0  0  0
   -0.2541    0.8764   -0.4078 C   0  0  0  0  0  0  0  0  0  0  0  0
   -1.2475   -0.0189   -0.0412 C   0  0  0  0  0  0  0  0  0  0  0  0
   -2.6847    0.4136   -0.0503 C   0  0  0  0  0  0  0  0  0  0  0  0
   -0.8759   -1.3062    0.3574 C   0  0  0  0  0  0  0  0  0  0  0  0
    0.4730   -1.6731    0.4241 C   0  0  0  0  0  0  0  0  0  0  0  0
    1.4335   -0.7523    0.0396 C   0  0  0  0  0  0  0  0  0  0  0  0
    0.8757   -3.0258    0.9297 C   0  0  0  0  0  0  0  0  0  0  0  0
   -1.9082   -2.3080    0.7135 C   0  0  0  0  0  0  0  0  0  0  0  0
   -2.2012   -2.6916    1.8046 O   0  0  0  0  0  0  0  0  0  0  0  0
   -2.6410   -2.9090   -0.5403 C   0  0  0  0  0  0  0  0  0  0  0  0
   -1.7088   -3.2431   -1.5748 N   0  0  0  0  0  0  0  0  0  0  0  0
   -1.1272   -2.3652   -2.4393 C   0  0  0  0  0  0  0  0  0  0  0  0
   -0.2184   -3.0638   -3.1753 C   0  0  0  0  0  0  0  0  0  0  0  0
   -0.2529   -4.3548   -2.7461 N   0  0  0  0  0  0  0  0  0  0  0  0
   -1.1585   -4.4403   -1.7750 C   0  0  0  0  0  0  0  0  0  0  0  0
    0.5389   -5.4309   -3.2769 C   0  0  0  0  0  0  0  0  0  0  0  0
    1.7762    2.1971   -1.5313 H   0  0  0  0  0  0  0  0  0  0  0  0
    2.4218    2.1048    0.1019 H   0  0  0  0  0  0  0  0  0  0  0  0
    3.0347    1.0132   -1.1346 H   0  0  0  0  0  0  0  0  0  0  0  0
   -0.5355    1.8755   -0.7058 H   0  0  0  0  0  0  0  0  0  0  0  0
   -3.2787   -0.1595    0.6577 H   0  0  0  0  0  0  0  0  0  0  0  0
   -2.7546    1.4641    0.2213 H   0  0  0  0  0  0  0  0  0  0  0  0
   -3.1222    0.3105   -1.0453 H   0  0  0  0  0  0  0  0  0  0  0  0
    2.4757   -1.0310    0.0879 H   0  0  0  0  0  0  0  0  0  0  0  0
    0.7968   -3.0416    2.0169 H   0  0  0  0  0  0  0  0  0  0  0  0
    0.2331   -3.8190    0.5476 H   0  0  0  0  0  0  0  0  0  0  0  0
    1.9066   -3.2459    0.6644 H   0  0  0  0  0  0  0  0  0  0  0  0
   -3.1917   -3.7963   -0.2225 H   0  0  0  0  0  0  0  0  0  0  0  0
   -3.3438   -2.1568   -0.9036 H   0  0  0  0  0  0  0  0  0  0  0  0
   -1.3867   -1.3277   -2.4754 H   0  0  0  0  0  0  0  0  0  0  0  0
    0.4338   -2.7326   -3.9571 H   0  0  0  0  0  0  0  0  0  0  0  0
   -1.4175   -5.3361   -1.2439 H   0  0  0  0  0  0  0  0  0  0  0  0
    0.4467   -6.3095   -2.6424 H   0  0  0  0  0  0  0  0  0  0  0  0
    0.2038   -5.6842   -4.2843 H   0  0  0  0  0  0  0  0  0  0  0  0
    1.5861   -5.1320   -3.3270 H   0  0  0  0  0  0  0  0  0  0  0  0
  1  2  1  0  0  0  0
  2  3  4  0  0  0  0
  3  4  4  0  0  0  0
  4  5  1  0  0  0  0
  4  6  4  0  0  0  0
  6  7  4  0  0  0  0
  2  8  4  0  0  0  0
  7  8  4  0  0  0  0
  7  9  1  0  0  0  0
  6 10  1  0  0  0  0
 10 11  2  0  0  0  0
 10 12  1  0  0  0  0
 12 13  1  0  0  0  0
 13 14  4  0  0  0  0
 14 15  2  0  0  0  0
 15 16  4  0  0  0  0
 13 17  4  0  0  0  0
 16 17  4  0  0  0  0
 16 18  1  0  0  0  0
  1 19  1  0  0  0  0
  1 20  1  0  0  0  0
  1 21  1  0  0  0  0
  3 22  1  0  0  0  0
  5 23  1  0  0  0  0
  5 24  1  0  0  0  0
  5 25  1  0  0  0  0
  8 26  1  0  0  0  0
  9 27  1  0  0  0  0
  9 28  1  0  0  0  0
  9 29  1  0  0  0  0
 12 30  1  0  0  0  0
 12 31  1  0  0  0  0
 14 32  1  0  0  0  0
 15 33  1  0  0  0  0
 17 34  1  0  0  0  0
 18 35  1  0  0  0  0
 18 36  1  0  0  0  0
 18 37  1  0  0  0  0
M  CHG  1   1   1
M  END
