53

C          0.97479        0.00462        0.33208
C          0.40599       -0.85916        1.43964
P          0.35583        1.65949        0.20520
C          0.81585        2.30731       -1.40154
C          0.45510        1.52750       -2.66347
C         -1.02921        1.48096       -3.03028
C         -1.69527        2.84038       -3.26556
C         -1.16145        3.62912       -4.46620
C         -1.35555        2.95880       -5.83134
C         -2.80274        2.60610       -6.19425
C         -3.79212        3.77673       -6.17905
C         -3.46042        4.93075       -7.12804
C         -3.46447        4.52630       -8.59403
C         -1.40247        1.74679        0.38791
C         -1.95568        1.80998        1.79662
C          1.17150        2.74578        1.35825
C          1.38173        2.24415        2.77095
H          0.77860       -0.51939       -0.60831
H          2.06474        0.04682        0.43576
H          0.55085       -0.40588        2.42196
H         -0.66745       -1.01313        1.29577
H          0.88892       -1.84132        1.44298
H          0.45410        3.33785       -1.47798
H          1.91069        2.38508       -1.38728
H          1.01125        1.95849       -3.50475
H          0.81731        0.49868       -2.56783
H         -1.14424        0.86017       -3.92666
H         -1.57783        0.95119       -2.24771
H         -2.77324        2.68166       -3.38377
H         -1.59259        3.46374       -2.37103
H         -1.64771        4.61186       -4.47711
H         -0.09346        3.83291       -4.32590
H         -0.93990        3.61761       -6.60326
H         -0.75434        2.04288       -5.87472
H         -2.80816        2.13819       -7.18588
H         -3.17007        1.83413       -5.50739
H         -4.78769        3.38890       -6.42938
H         -3.87396        4.17410       -5.16067
H         -4.20874        5.71978       -6.98468
H         -2.49212        5.37366       -6.87203
H         -4.41911        4.06851       -8.87208
H         -3.31490        5.40677       -9.22718
H         -2.66197        3.81728       -8.81710
H         -1.76237        2.63410       -0.14292
H         -1.85063        0.88029       -0.10761
H         -1.63010        2.72383        2.30147
H         -3.05005        1.81053        1.77590
H         -1.62731        0.95572        2.39295
H          2.15862        2.99417        0.95125
H          0.61311        3.68809        1.39354
H          2.05059        1.37884        2.77818
H          1.83875        3.02444        3.38763
H          0.44144        1.94876        3.24023
