35

C          1.25744        0.39445        0.25521
N          0.77104       -0.31680        1.42960
C          1.00569       -1.61389        1.67841
N          0.39156       -1.92566        2.82687
C         -0.27848       -0.81191        3.30934
C         -0.03267        0.20502        2.43089
C          0.33543       -3.27583        3.39932
C         -0.72845       -4.04193        2.70376
N         -2.03976       -3.65787        2.81401
N         -2.77512       -4.47489        2.07597
N         -1.95139       -5.38404        1.52332
C         -0.65003       -5.13559        1.86709
C         -2.46867       -6.38791        0.60831
C         -2.25570       -7.78492        1.13037
C         -1.32355       -8.64068        0.52421
C         -1.13840       -9.93791        1.00489
C         -1.88107      -10.39268        2.09254
C         -2.80953       -9.55202        2.70264
C         -2.99707       -8.25434        2.22563
H          0.87684        1.41903        0.24610
H          0.91434       -0.12800       -0.64203
H          2.35014        0.41022        0.27923
H          1.58055       -2.28825        1.05420
H         -0.86246       -0.89508        4.21036
H         -0.34139        1.23516        2.37971
H          1.31676       -3.74539        3.27350
H          0.12573       -3.20417        4.47175
H          0.16826       -5.74495        1.51120
H         -3.53679       -6.20038        0.44866
H         -1.95956       -6.23310       -0.34999
H         -0.74094       -8.31390       -0.33439
H         -0.42154      -10.60088        0.52582
H         -1.74251      -11.40669        2.46049
H         -3.39399       -9.91154        3.54651
H         -3.73298       -7.61506        2.71174
