46

C          1.19654        0.12281        0.25409
C          0.67593       -0.45320       -1.05822
N          1.04451       -1.93617       -1.30022
C          0.43577       -2.85055       -0.11333
C         -1.09245       -2.91679       -0.06068
C         -1.81799       -1.98131        0.69776
C         -3.21457       -2.01163        0.73874
C         -3.91400       -2.98677        0.03621
C         -3.21879       -3.93830       -0.70132
C         -1.82283       -3.90665       -0.74780
C          1.06474       -4.26162       -0.09930
C          0.36615       -2.40084       -2.63539
C          0.79905       -1.78406       -3.94161
C          1.73602       -2.43395       -4.76262
C          2.12129       -1.87250       -5.98154
C          1.56814       -0.66506       -6.40087
C          0.62060       -0.02155       -5.60953
C          0.23179       -0.58010       -4.39126
C          2.57921       -2.14123       -1.35660
C          3.39218       -1.05238       -2.04657
H          0.66796       -0.26833        1.12469
H          1.04017        1.20720        0.25707
H          2.26315       -0.05232        0.40832
H         -0.41367       -0.36518       -1.11008
H          1.08900        0.12780       -1.88693
H          0.78600       -2.37942        0.81144
H         -1.31708       -1.21765        1.28651
H         -3.76090       -1.27937        1.33061
H         -5.00106       -3.01462        0.07590
H         -3.76719       -4.71257       -1.23489
H         -1.32773       -4.68042       -1.33097
H          2.12984       -4.23126        0.14925
H          0.59361       -4.88108        0.67384
H          0.95893       -4.79066       -1.05005
H          0.50368       -3.48491       -2.69860
H         -0.70739       -2.21292       -2.52913
H          2.17461       -3.38620       -4.47077
H          2.84782       -2.37966       -6.61345
H          1.86453       -0.23219       -7.35426
H          0.17522        0.91060       -5.95186
H         -0.53369       -0.06825       -3.81122
H          2.92657       -2.20962       -0.31969
H          2.75606       -3.10511       -1.84592
H          3.40590       -0.11997       -1.47704
H          4.43469       -1.38181       -2.12253
H          3.05772       -0.81866       -3.05470
