73

C          1.22838       -0.37144        0.52821
C          1.05241        1.11102        0.81847
C          1.35055        2.00879       -0.38538
C          0.47243        1.77375       -1.61960
C         -1.03624        1.90744       -1.38951
C         -1.50049        3.26521       -0.85301
C         -1.19406        4.46809       -1.75152
C         -1.85423        4.43868       -3.13517
C         -3.38201        4.53567       -3.11782
N         -3.84322        5.83422       -2.59970
C         -3.78195        7.00589       -3.27326
C         -3.47799        7.16289       -4.73014
N         -4.00522        7.99394       -2.37721
C         -4.47809        7.43837       -1.18729
C         -4.40595        6.05246       -1.34407
C         -4.82175        5.17316       -0.34601
C         -5.30905        5.75547        0.83086
C         -5.36745        7.15106        0.99443
C         -4.94850        8.02780       -0.01480
C         -3.82754        9.43691       -2.61192
C         -2.45789        9.93672       -2.14407
C         -1.27009        9.45207       -2.98540
C         -1.24786        9.97458       -4.42738
C         -0.88033       11.45533       -4.56618
C          0.60170       11.77761       -4.34393
C          1.58178       11.09272       -5.30532
C          1.29661       11.28698       -6.79736
C          1.31834       12.74290       -7.23615
H          0.49478       -0.72780       -0.20081
H          1.09211       -0.95272        1.44584
H          2.23092       -0.57952        0.14142
H          0.03838        1.29300        1.19057
H          1.73327        1.38887        1.63221
H          1.26529        3.05557       -0.07066
H          2.39879        1.86871       -0.67842
H          0.78461        2.47109       -2.40606
H          0.67413        0.77308       -2.02032
H         -1.55358        1.68976       -2.33111
H         -1.36567        1.12892       -0.69116
H         -2.57772        3.20728       -0.67086
H         -1.04797        3.44252        0.12967
H         -1.49452        5.38222       -1.22583
H         -0.10924        4.55176       -1.88558
H         -1.44986        5.27647       -3.71502
H         -1.55881        3.53018       -3.67070
H         -3.77136        4.41965       -4.13458
H         -3.82154        3.72246       -2.53408
H         -2.39513        7.20687       -4.83788
H         -3.89399        6.30537       -5.25861
H         -3.95921        8.07076       -5.09032
H         -4.78113        4.09876       -0.46907
H         -5.65094        5.11178        1.64236
H         -5.75174        7.55858        1.93029
H         -4.99586        9.10194        0.11155
H         -4.01206        9.66899       -3.66212
H         -4.61043        9.96580       -2.05566
H         -2.46968       11.03171       -2.12214
H         -2.29645        9.61015       -1.10928
H         -0.34097        9.73648       -2.47847
H         -1.27204        8.35645       -3.00501
H         -0.55260        9.36198       -5.01123
H         -2.22620        9.82457       -4.89299
H         -1.17260       11.79222       -5.56754
H         -1.47740       12.05582       -3.87102
H          0.73195       12.86408       -4.41981
H          0.88420       11.51729       -3.31715
H          2.59137       11.46395       -5.08781
H          1.60867       10.01753       -5.09261
H          2.05731       10.74065       -7.36819
H          0.33353       10.83835       -7.06445
H          2.27400       13.21372       -6.98548
H          1.18173       12.81026       -8.32034
H          0.51541       13.31762       -6.76550
