 xtb: 6.7.1 (edcfbbe)
          12202402093D

 24 24  0     0  0            999 V2000
   -2.1672    0.0083    0.7454 C   0  0  0  0  0  0  0  0  0  0  0  0
   -0.8889    0.0023    0.0092 N   0  0  0  0  0  0  0  0  0  0  0  0
   -1.1911   -0.0117   -1.4330 C   0  0  0  0  0  0  0  0  0  0  0  0
   -0.1153   -1.2108    0.4019 C   0  0  0  0  0  0  0  0  0  0  0  0
    1.2939   -1.2443   -0.1791 C   0  0  0  0  0  0  0  0  0  0  0  0
    2.0667    0.0067    0.2254 C   0  0  0  0  0  0  0  0  0  0  0  0
    1.2919    1.2485   -0.2030 C   0  0  0  0  0  0  0  0  0  0  0  0
   -0.1172    1.2238    0.3787 C   0  0  0  0  0  0  0  0  0  0  0  0
   -2.7467   -0.8797    0.4984 H   0  0  0  0  0  0  0  0  0  0  0  0
   -1.9897    0.0192    1.8195 H   0  0  0  0  0  0  0  0  0  0  0  0
   -2.7486    0.8899    0.4807 H   0  0  0  0  0  0  0  0  0  0  0  0
   -0.2785   -0.0174   -2.0213 H   0  0  0  0  0  0  0  0  0  0  0  0
   -1.7706   -0.8991   -1.6814 H   0  0  0  0  0  0  0  0  0  0  0  0
   -1.7708    0.8705   -1.6985 H   0  0  0  0  0  0  0  0  0  0  0  0
   -0.0467   -1.2167    1.4922 H   0  0  0  0  0  0  0  0  0  0  0  0
   -0.6781   -2.0918    0.0878 H   0  0  0  0  0  0  0  0  0  0  0  0
    1.2696   -1.3395   -1.2648 H   0  0  0  0  0  0  0  0  0  0  0  0
    1.7915   -2.1334    0.2083 H   0  0  0  0  0  0  0  0  0  0  0  0
    3.0513    0.0031   -0.2385 H   0  0  0  0  0  0  0  0  0  0  0  0
    2.2106    0.0172    1.3072 H   0  0  0  0  0  0  0  0  0  0  0  0
    1.2673    1.3227   -1.2904 H   0  0  0  0  0  0  0  0  0  0  0  0
    1.7881    2.1457    0.1671 H   0  0  0  0  0  0  0  0  0  0  0  0
   -0.6815    2.0978    0.0481 H   0  0  0  0  0  0  0  0  0  0  0  0
   -0.0485    1.2505    1.4687 H   0  0  0  0  0  0  0  0  0  0  0  0
  1  2  1  0  0  0  0
  2  3  1  0  0  0  0
  2  4  1  0  0  0  0
  4  5  1  0  0  0  0
  5  6  1  0  0  0  0
  6  7  1  0  0  0  0
  2  8  1  0  0  0  0
  7  8  1  0  0  0  0
  1  9  1  0  0  0  0
  1 10  1  0  0  0  0
  1 11  1  0  0  0  0
  3 12  1  0  0  0  0
  3 13  1  0  0  0  0
  3 14  1  0  0  0  0
  4 15  1  0  0  0  0
  4 16  1  0  0  0  0
  5 17  1  0  0  0  0
  5 18  1  0  0  0  0
  6 19  1  0  0  0  0
  6 20  1  0  0  0  0
  7 21  1  0  0  0  0
  7 22  1  0  0  0  0
  8 23  1  0  0  0  0
  8 24  1  0  0  0  0
M  CHG  1   1   1
M  END
