52

C          0.23845        0.54741        0.37004
O         -0.52399        1.68769        0.79103
C         -0.28839        2.38630        1.92943
C          0.79536        1.89812        2.80805
C          1.13876        2.59505        3.90359
C          2.24112        2.15480        4.75762
C          2.00517        1.71276        6.05788
C          3.06735        1.23891        6.83792
C          4.37457        1.20341        6.33962
O          5.29135        0.69031        7.19713
C          6.57151        0.15479        6.84517
C          6.52495       -1.18962        6.09306
C          6.18085       -1.22339        4.61136
N          7.26471       -0.79300        3.71377
C          8.44087       -1.43006        3.57406
N          9.11336       -0.83576        2.57679
C          8.35673        0.20117        2.06233
C          7.18070        0.20906        2.75616
C         10.41236       -1.26902        2.07520
C          7.63726        1.16385        6.39137
C          7.83207        2.33180        7.36902
C          8.55479        1.92406        8.64632
C          4.61083        1.72171        5.07504
C          3.55307        2.17584        4.27829
O         -0.93622        3.38645        2.20475
H         -0.11504        0.25537       -0.62270
H          0.07440       -0.28972        1.05450
H          1.30032        0.79928        0.29161
H          1.30744        0.98040        2.56477
H          0.62330        3.50899        4.19310
H          0.99956        1.72444        6.47417
H          2.86606        0.89283        7.85048
H          6.93386       -0.16983        7.83050
H          7.49304       -1.68783        6.23246
H          5.77965       -1.81536        6.60243
H          5.97848       -2.26701        4.33371
H          5.26670       -0.67828        4.37807
H          8.77586       -2.28832        4.14544
H          8.74276        0.78192        1.24178
H          6.28324        0.79659        2.67705
H         10.97616       -1.74740        2.87981
H         10.25181       -1.98214        1.26180
H         10.97216       -0.40621        1.70415
H          8.59428        0.64455        6.25621
H          7.39678        1.58787        5.41770
H          8.43044        3.10442        6.87173
H          6.87059        2.79277        7.62096
H          9.51547        1.45104        8.41770
H          8.75256        2.80454        9.26595
H          7.96109        1.22621        9.24353
H          5.60354        1.80867        4.66983
H          3.76147        2.56817        3.28511
