 xtb: 6.7.1 (edcfbbe)
          12202402103D

 52 53  0     0  0            999 V2000
   -0.3238    3.4453    1.0777 C   0  0  0  0  0  0  0  0  0  0  0  0
   -0.3230    2.1168    0.5933 O   0  0  0  0  0  0  0  0  0  0  0  0
    0.4010    1.1508    1.1709 C   0  0  0  0  0  0  0  0  0  0  0  0
    1.3363    1.5055    2.2691 C   0  0  0  0  0  0  0  0  0  0  0  0
    1.6908    0.5555    3.1398 C   0  0  0  0  0  0  0  0  0  0  0  0
    2.6446    0.6722    4.2276 C   0  0  0  0  0  0  0  0  0  0  0  0
    2.6407   -0.2900    5.2422 C   0  0  0  0  0  0  0  0  0  0  0  0
    3.5670   -0.2491    6.2631 C   0  0  0  0  0  0  0  0  0  0  0  0
    4.5455    0.7471    6.2936 C   0  0  0  0  0  0  0  0  0  0  0  0
    5.4344    0.7488    7.3455 O   0  0  0  0  0  0  0  0  0  0  0  0
    6.7995    0.4158    7.1618 C   0  0  0  0  0  0  0  0  0  0  0  0
    7.0164   -1.0961    6.9133 C   0  0  0  0  0  0  0  0  0  0  0  0
    6.4547   -1.7089    5.6242 C   0  0  0  0  0  0  0  0  0  0  0  0
    7.0598   -1.2076    4.4094 N   0  0  0  0  0  0  0  0  0  0  0  0
    8.3320   -1.3493    4.0455 C   0  0  0  0  0  0  0  0  0  0  0  0
    8.5220   -0.7726    2.8626 N   0  0  0  0  0  0  0  0  0  0  0  0
    7.3331   -0.2468    2.4564 C   0  0  0  0  0  0  0  0  0  0  0  0
    6.4162   -0.5211    3.4259 C   0  0  0  0  0  0  0  0  0  0  0  0
    9.7538   -0.7133    2.1230 C   0  0  0  0  0  0  0  0  0  0  0  0
    7.5549    1.3098    6.1695 C   0  0  0  0  0  0  0  0  0  0  0  0
    7.6831    2.7475    6.6886 C   0  0  0  0  0  0  0  0  0  0  0  0
    8.7871    2.9032    7.7269 C   0  0  0  0  0  0  0  0  0  0  0  0
    4.5219    1.7432    5.3199 C   0  0  0  0  0  0  0  0  0  0  0  0
    3.5869    1.6998    4.3028 C   0  0  0  0  0  0  0  0  0  0  0  0
    0.2942    0.0168    0.7767 O   0  0  0  0  0  0  0  0  0  0  0  0
   -1.1423    3.9427    0.5604 H   0  0  0  0  0  0  0  0  0  0  0  0
    0.6122    3.9567    0.8353 H   0  0  0  0  0  0  0  0  0  0  0  0
   -0.5015    3.4822    2.1552 H   0  0  0  0  0  0  0  0  0  0  0  0
    1.7275    2.5100    2.3137 H   0  0  0  0  0  0  0  0  0  0  0  0
    1.2119   -0.4106    3.0353 H   0  0  0  0  0  0  0  0  0  0  0  0
    1.8948   -1.0704    5.2271 H   0  0  0  0  0  0  0  0  0  0  0  0
    3.5414   -0.9780    7.0596 H   0  0  0  0  0  0  0  0  0  0  0  0
    7.2141    0.6050    8.1595 H   0  0  0  0  0  0  0  0  0  0  0  0
    8.0878   -1.2923    6.9817 H   0  0  0  0  0  0  0  0  0  0  0  0
    6.5327   -1.6279    7.7345 H   0  0  0  0  0  0  0  0  0  0  0  0
    6.6191   -2.7902    5.6644 H   0  0  0  0  0  0  0  0  0  0  0  0
    5.3818   -1.5227    5.5563 H   0  0  0  0  0  0  0  0  0  0  0  0
    9.0856   -1.8598    4.6132 H   0  0  0  0  0  0  0  0  0  0  0  0
    7.2197    0.2703    1.5255 H   0  0  0  0  0  0  0  0  0  0  0  0
    5.3744   -0.2733    3.4794 H   0  0  0  0  0  0  0  0  0  0  0  0
   10.5455   -1.2100    2.6788 H   0  0  0  0  0  0  0  0  0  0  0  0
    9.6341   -1.2050    1.1570 H   0  0  0  0  0  0  0  0  0  0  0  0
   10.0367    0.3253    1.9486 H   0  0  0  0  0  0  0  0  0  0  0  0
    8.5554    0.8953    6.0231 H   0  0  0  0  0  0  0  0  0  0  0  0
    7.0426    1.3125    5.2057 H   0  0  0  0  0  0  0  0  0  0  0  0
    7.8954    3.4106    5.8471 H   0  0  0  0  0  0  0  0  0  0  0  0
    6.7322    3.0533    7.1279 H   0  0  0  0  0  0  0  0  0  0  0  0
    9.7529    2.6294    7.3071 H   0  0  0  0  0  0  0  0  0  0  0  0
    8.8414    3.9362    8.0582 H   0  0  0  0  0  0  0  0  0  0  0  0
    8.6009    2.2818    8.5988 H   0  0  0  0  0  0  0  0  0  0  0  0
    5.2125    2.5692    5.3712 H   0  0  0  0  0  0  0  0  0  0  0  0
    3.5958    2.4753    3.5527 H   0  0  0  0  0  0  0  0  0  0  0  0
  1  2  1  0  0  0  0
  2  3  1  0  0  0  0
  3  4  1  0  0  0  0
  4  5  2  0  0  0  0
  5  6  1  0  0  0  0
  6  7  4  0  0  0  0
  7  8  4  0  0  0  0
  8  9  4  0  0  0  0
  9 10  1  0  0  0  0
 10 11  1  0  0  0  0
 11 12  1  0  0  0  0
 12 13  1  0  0  0  0
 13 14  1  0  0  0  0
 14 15  4  0  0  0  0
 15 16  4  0  0  0  0
 16 17  4  0  0  0  0
 14 18  4  0  0  0  0
 17 18  2  0  0  0  0
 16 19  1  0  0  0  0
 11 20  1  0  0  0  0
 20 21  1  0  0  0  0
 21 22  1  0  0  0  0
  9 23  4  0  0  0  0
  6 24  4  0  0  0  0
 23 24  4  0  0  0  0
  3 25  2  0  0  0  0
  1 26  1  0  0  0  0
  1 27  1  0  0  0  0
  1 28  1  0  0  0  0
  4 29  1  0  0  0  0
  5 30  1  0  0  0  0
  7 31  1  0  0  0  0
  8 32  1  0  0  0  0
 11 33  1  0  0  0  0
 12 34  1  0  0  0  0
 12 35  1  0  0  0  0
 13 36  1  0  0  0  0
 13 37  1  0  0  0  0
 15 38  1  0  0  0  0
 17 39  1  0  0  0  0
 18 40  1  0  0  0  0
 19 41  1  0  0  0  0
 19 42  1  0  0  0  0
 19 43  1  0  0  0  0
 20 44  1  0  0  0  0
 20 45  1  0  0  0  0
 21 46  1  0  0  0  0
 21 47  1  0  0  0  0
 22 48  1  0  0  0  0
 22 49  1  0  0  0  0
 22 50  1  0  0  0  0
 23 51  1  0  0  0  0
 24 52  1  0  0  0  0
M  CHG  1   1   1
M  END
