 xtb: 6.7.1 (edcfbbe)
          12202402103D

 51 54  0     0  0            999 V2000
   -1.0278    0.3672    0.3503 C   0  0  0  0  0  0  0  0  0  0  0  0
   -0.8554   -0.9849    0.0441 C   0  0  0  0  0  0  0  0  0  0  0  0
    0.4046   -1.5589   -0.1152 C   0  0  0  0  0  0  0  0  0  0  0  0
    1.5140   -0.7417    0.0413 C   0  0  0  0  0  0  0  0  0  0  0  0
    1.3854    0.6070    0.3459 C   0  0  0  0  0  0  0  0  0  0  0  0
    0.1107    1.1425    0.4962 C   0  0  0  0  0  0  0  0  0  0  0  0
    2.5890    1.4717    0.5305 C   0  0  0  0  0  0  0  0  0  0  0  0
    0.5520   -3.0119   -0.4497 C   0  0  0  0  0  0  0  0  0  0  0  0
   -2.0194   -1.7969   -0.1054 N   0  0  0  0  0  0  0  0  0  0  0  0
   -2.8481   -1.7714   -1.1414 C   0  0  0  0  0  0  0  0  0  0  0  0
   -3.8633   -2.6019   -0.9122 N   0  0  0  0  0  0  0  0  0  0  0  0
   -3.6762   -3.1710    0.3106 C   0  0  0  0  0  0  0  0  0  0  0  0
   -2.5149   -2.6706    0.8149 C   0  0  0  0  0  0  0  0  0  0  0  0
   -5.0410   -2.6909   -1.7427 C   0  0  0  0  0  0  0  0  0  0  0  0
   -5.7179   -1.3528   -1.7453 C   0  0  0  0  0  0  0  0  0  0  0  0
   -5.0041   -0.2188   -1.5697 N   0  0  0  0  0  0  0  0  0  0  0  0
   -5.7985    0.7857   -1.6125 N   0  0  0  0  0  0  0  0  0  0  0  0
   -7.0259    0.3543   -1.8108 N   0  0  0  0  0  0  0  0  0  0  0  0
   -7.0401   -0.9925   -1.9005 C   0  0  0  0  0  0  0  0  0  0  0  0
   -8.1448    1.2588   -1.9097 C   0  0  0  0  0  0  0  0  0  0  0  0
   -8.9927    0.9284   -3.1124 C   0  0  0  0  0  0  0  0  0  0  0  0
   -8.4400    1.0009   -4.3858 C   0  0  0  0  0  0  0  0  0  0  0  0
   -9.2026    0.6828   -5.4949 C   0  0  0  0  0  0  0  0  0  0  0  0
  -10.5231    0.2930   -5.3406 C   0  0  0  0  0  0  0  0  0  0  0  0
  -11.0782    0.2205   -4.0746 C   0  0  0  0  0  0  0  0  0  0  0  0
  -10.3141    0.5323   -2.9628 C   0  0  0  0  0  0  0  0  0  0  0  0
   -2.3950    0.9458    0.5446 C   0  0  0  0  0  0  0  0  0  0  0  0
    2.4982   -1.1679   -0.0791 H   0  0  0  0  0  0  0  0  0  0  0  0
    0.0043    2.1894    0.7364 H   0  0  0  0  0  0  0  0  0  0  0  0
    2.4515    2.4324    0.0397 H   0  0  0  0  0  0  0  0  0  0  0  0
    2.7464    1.6626    1.5919 H   0  0  0  0  0  0  0  0  0  0  0  0
    3.4809    0.9949    0.1344 H   0  0  0  0  0  0  0  0  0  0  0  0
    0.2832   -3.6347    0.4033 H   0  0  0  0  0  0  0  0  0  0  0  0
   -0.0867   -3.2912   -1.2869 H   0  0  0  0  0  0  0  0  0  0  0  0
    1.5812   -3.2341   -0.7148 H   0  0  0  0  0  0  0  0  0  0  0  0
   -2.7258   -1.1663   -2.0171 H   0  0  0  0  0  0  0  0  0  0  0  0
   -4.3627   -3.8778    0.7295 H   0  0  0  0  0  0  0  0  0  0  0  0
   -2.0228   -2.8601    1.7467 H   0  0  0  0  0  0  0  0  0  0  0  0
   -4.7469   -2.9650   -2.7622 H   0  0  0  0  0  0  0  0  0  0  0  0
   -5.7074   -3.4613   -1.3510 H   0  0  0  0  0  0  0  0  0  0  0  0
   -7.9303   -1.5586   -2.0698 H   0  0  0  0  0  0  0  0  0  0  0  0
   -8.7402    1.1945   -0.9932 H   0  0  0  0  0  0  0  0  0  0  0  0
   -7.7206    2.2638   -1.9839 H   0  0  0  0  0  0  0  0  0  0  0  0
   -7.4120    1.3131   -4.5057 H   0  0  0  0  0  0  0  0  0  0  0  0
   -8.7677    0.7443   -6.4808 H   0  0  0  0  0  0  0  0  0  0  0  0
  -11.1190    0.0497   -6.2065 H   0  0  0  0  0  0  0  0  0  0  0  0
  -12.1074   -0.0792   -3.9500 H   0  0  0  0  0  0  0  0  0  0  0  0
  -10.7511    0.4766   -1.9760 H   0  0  0  0  0  0  0  0  0  0  0  0
   -2.3220    1.9962    0.8083 H   0  0  0  0  0  0  0  0  0  0  0  0
   -3.0048    0.8619   -0.3545 H   0  0  0  0  0  0  0  0  0  0  0  0
   -2.9180    0.4291    1.3496 H   0  0  0  0  0  0  0  0  0  0  0  0
  1  2  4  0  0  0  0
  2  3  4  0  0  0  0
  3  4  4  0  0  0  0
  4  5  4  0  0  0  0
  1  6  4  0  0  0  0
  5  6  4  0  0  0  0
  5  7  1  0  0  0  0
  3  8  1  0  0  0  0
  2  9  1  0  0  0  0
  9 10  4  0  0  0  0
 10 11  4  0  0  0  0
 11 12  4  0  0  0  0
  9 13  4  0  0  0  0
 12 13  2  0  0  0  0
 11 14  1  0  0  0  0
 14 15  1  0  0  0  0
 15 16  4  0  0  0  0
 16 17  4  0  0  0  0
 17 18  4  0  0  0  0
 15 19  4  0  0  0  0
 18 19  4  0  0  0  0
 18 20  1  0  0  0  0
 20 21  1  0  0  0  0
 21 22  4  0  0  0  0
 22 23  4  0  0  0  0
 23 24  4  0  0  0  0
 24 25  4  0  0  0  0
 21 26  4  0  0  0  0
 25 26  4  0  0  0  0
  1 27  1  0  0  0  0
  4 28  1  0  0  0  0
  6 29  1  0  0  0  0
  7 30  1  0  0  0  0
  7 31  1  0  0  0  0
  7 32  1  0  0  0  0
  8 33  1  0  0  0  0
  8 34  1  0  0  0  0
  8 35  1  0  0  0  0
 10 36  1  0  0  0  0
 12 37  1  0  0  0  0
 13 38  1  0  0  0  0
 14 39  1  0  0  0  0
 14 40  1  0  0  0  0
 19 41  1  0  0  0  0
 20 42  1  0  0  0  0
 20 43  1  0  0  0  0
 22 44  1  0  0  0  0
 23 45  1  0  0  0  0
 24 46  1  0  0  0  0
 25 47  1  0  0  0  0
 26 48  1  0  0  0  0
 27 49  1  0  0  0  0
 27 50  1  0  0  0  0
 27 51  1  0  0  0  0
M  CHG  1   1   1
M  END
