56

C         -0.12109        0.29997       -0.40628
C          0.53425       -0.65824       -1.39448
N          1.42643       -1.68142       -0.82821
C          0.71112       -2.88115       -0.36155
C          1.00197       -4.07745       -1.29805
N          2.45020       -4.26405       -1.55269
C          3.10634       -3.78971       -2.63670
C          2.50663       -3.04632       -3.79128
N          4.40009       -4.17497       -2.51291
C          4.60760       -4.74548       -1.26118
C          3.35041       -4.83413       -0.66009
C          3.16943       -5.40204        0.59904
C          4.32451       -5.87340        1.23654
C          5.59236       -5.77802        0.63431
C          5.76276       -5.21192       -0.63559
C          5.41961       -4.03153       -3.56570
C          5.11133       -4.95080       -4.73414
O          4.41772       -4.61862       -5.68851
C          5.60211       -6.33718       -4.64312
C          4.91438       -7.25512       -3.84184
C          5.37835       -8.56817       -3.74218
C          6.52249       -8.95436       -4.45689
C          7.19755       -8.03503       -5.27574
C          6.73071       -6.72005       -5.37260
N          7.01576      -10.33436       -4.34335
O          6.42464      -11.08783       -3.55792
O          7.99948      -10.64933       -5.02478
C          2.40614       -1.19408        0.14824
C          3.46637       -0.32118       -0.50869
H         -0.63802       -0.23365        0.39658
H         -0.85702        0.92219       -0.92672
H          0.61431        0.97757        0.03949
H         -0.25075       -1.14828       -1.98571
H          1.10196       -0.06888       -2.12414
H          1.01848       -3.15506        0.65552
H         -0.37338       -2.72555       -0.30486
H          0.60810       -5.00330       -0.86356
H          0.49283       -3.94129       -2.25827
H          2.07445       -3.79214       -4.45887
H          1.74304       -2.36931       -3.41617
H          3.28955       -2.47027       -4.28293
H          2.19373       -5.47403        1.06213
H          4.24171       -6.32449        2.22629
H          6.46342       -6.15557        1.17192
H          6.74129       -5.14157       -1.09349
H          5.44416       -2.99351       -3.91167
H          6.41714       -4.25335       -3.17589
H          4.00900       -6.96928       -3.31186
H          4.83661       -9.27986       -3.12031
H          8.07700       -8.33137       -5.84693
H          7.24296       -6.01476       -6.02470
H          1.93020       -0.66971        0.98431
H          2.94042       -2.04480        0.58983
H          3.04382        0.59952       -0.92039
H          4.22716       -0.04155        0.22706
H          3.96888       -0.86412       -1.31703
