34

Cl         0.94226        0.07127       -0.26751
C          2.66322        0.12325       -0.28035
C          3.30514        1.36704       -0.42568
C          4.70286        1.47226       -0.45031
C          5.41012        0.27954       -0.31558
C          4.76542       -0.95801       -0.15698
C          3.37724       -1.07337       -0.14516
N          5.78257       -1.90511       -0.01785
C          5.62604       -3.35140        0.20848
C          4.76850       -3.69161        1.41425
O          3.59301       -4.03360        1.29844
C          5.38305       -3.64793        2.76189
C          6.20193       -2.58744        3.16363
C          6.75558       -2.58588        4.44525
C          6.49115       -3.63726        5.32227
C          5.66216       -4.68677        4.92787
C          5.10027       -4.69047        3.65110
C          6.97102       -1.30834       -0.18777
N          6.77535        0.01148       -0.30719
C          7.86317        0.97225       -0.45101
H          2.70453        2.27205       -0.52477
H          5.19795        2.42818       -0.56809
H          2.87573       -2.02751       -0.03688
H          5.17038       -3.78745       -0.68778
H          6.61293       -3.81270        0.32538
H          6.38718       -1.73236        2.52527
H          7.37913       -1.75736        4.77503
H          6.91679       -3.63125        6.32415
H          5.44464       -5.49679        5.62145
H          4.44064       -5.50661        3.36009
H          7.93538       -1.80420       -0.19257
H          8.58414        0.80987        0.35534
H          8.34947        0.81033       -1.41664
H          7.49359        1.99784       -0.39474
