 xtb: 6.7.1 (edcfbbe)
          12202402103D

 21 22  0     0  0            999 V2000
    0.7202   -0.0032    0.3099 N   0  0  0  0  0  0  0  0  0  0  0  0
   -0.3017   -0.6285    0.2936 N   0  0  0  0  0  0  0  0  0  0  0  0
   -1.3382   -1.0383    0.3295 N   0  0  0  0  0  0  0  0  0  0  0  0
    2.0427   -0.5162    0.0541 C   0  0  0  0  0  0  0  0  0  0  0  0
    2.8871    0.6892   -0.3719 C   0  0  0  0  0  0  0  0  0  0  0  0
    2.5547    1.8159    0.5329 N   0  0  0  0  0  0  0  0  0  0  0  0
    3.3175    1.8843    1.8022 C   0  0  0  0  0  0  0  0  0  0  0  0
    4.6128    2.6550    1.5282 C   0  0  0  0  0  0  0  0  0  0  0  0
    4.2373    3.7869    0.7174 N   0  0  0  0  0  0  0  0  0  0  0  0
    4.8490    4.8112    0.6055 N   0  0  0  0  0  0  0  0  0  0  0  0
    5.2724    5.8164    0.3738 N   0  0  0  0  0  0  0  0  0  0  0  0
    2.4441   -0.9753    0.9664 H   0  0  0  0  0  0  0  0  0  0  0  0
    2.0475   -1.2728   -0.7363 H   0  0  0  0  0  0  0  0  0  0  0  0
    3.9510    0.4603   -0.3328 H   0  0  0  0  0  0  0  0  0  0  0  0
    2.6241    0.9764   -1.3913 H   0  0  0  0  0  0  0  0  0  0  0  0
    2.7496    2.7382    0.0936 H   0  0  0  0  0  0  0  0  0  0  0  0
    1.5356    1.6869    0.6983 H   0  0  0  0  0  0  0  0  0  0  0  0
    2.7189    2.4272    2.5357 H   0  0  0  0  0  0  0  0  0  0  0  0
    3.5252    0.8861    2.1848 H   0  0  0  0  0  0  0  0  0  0  0  0
    5.0738    2.9574    2.4734 H   0  0  0  0  0  0  0  0  0  0  0  0
    5.3332    2.0320    0.9826 H   0  0  0  0  0  0  0  0  0  0  0  0
  1  2  2  0  0  0  0
  1  3  1  0  0  0  0
  2  3  2  0  0  0  0
  1  4  1  0  0  0  0
  4  5  1  0  0  0  0
  5  6  1  0  0  0  0
  6  7  1  0  0  0  0
  7  8  1  0  0  0  0
  8  9  1  0  0  0  0
  9 10  2  0  0  0  0
  9 11  1  0  0  0  0
 10 11  2  0  0  0  0
  4 12  1  0  0  0  0
  4 13  1  0  0  0  0
  5 14  1  0  0  0  0
  5 15  1  0  0  0  0
  6 16  1  0  0  0  0
  6 17  1  0  0  0  0
  7 18  1  0  0  0  0
  7 19  1  0  0  0  0
  8 20  1  0  0  0  0
  8 21  1  0  0  0  0
M  CHG  1   1   1
M  END
