19

C          0.98429        0.09431        0.02929
C         -0.31957        0.09431        0.02929
C         -1.83957        0.09431        0.02929
N         -2.39060        0.06848       -1.40301
C         -1.93715       -1.19023       -2.13185
C         -3.91214        0.06986       -1.32646
C         -1.93715        1.30008       -2.17676
H          2.05205        0.09457        0.04357
H         -2.21927       -0.79205        0.54928
H         -2.21927        0.99885        0.51698
H         -2.23380       -2.06056       -1.53902
H         -2.42390       -1.21410       -3.11167
H         -0.85191       -1.16192       -2.26129
H         -4.23320        0.97856       -0.80847
H         -4.31215        0.05149       -2.34476
H         -4.23320       -0.81957       -0.77604
H         -2.23380        2.19123       -1.61571
H         -0.85190        1.26712       -2.30510
H         -2.42390        1.28861       -3.15681
