64

C         -2.35176       -0.58116        0.00004
C         -2.30366        0.81629       -0.00068
C         -1.08739        1.49926       -0.00107
C          0.07794        0.72915       -0.00059
C          0.03661       -0.68465       -0.00012
C         -1.18828       -1.35821        0.00027
N          1.37396       -1.11876       -0.00041
C          2.16288       -0.02492        0.00069
N          1.43058        1.09884       -0.00059
C          1.99781        2.49071       -0.00223
C          1.55675        3.26362        1.26799
C          2.10319        4.70100        1.25630
C          3.63762        4.65785        1.24670
C          4.12845        3.91393       -0.00371
C          3.55749        2.48398       -0.00167
C          3.63850        4.65386       -1.25683
C          2.10406        4.69706       -1.26761
C          1.55754        3.25972       -1.27510
C          1.60427        5.42330       -0.00697
C          1.96534       -2.50460       -0.00209
C          2.85587       -2.68614        1.25990
C          3.55167       -4.05854        1.25717
C          2.48975       -5.16708        1.24771
C          1.61497       -5.03586       -0.00683
C          0.93352       -3.65607       -0.00476
C          2.49153       -5.16270       -1.26055
C          3.55353       -4.05423       -1.26451
C          2.85770       -2.68192       -1.26349
C          4.42423       -4.18257       -0.00324
H         -3.32317       -1.07752        0.00036
H         -3.23607        1.38152       -0.00094
H         -1.07317        2.58093       -0.00174
H         -1.28231       -2.43367        0.00079
H          3.24317       -0.06388        0.00174
H          0.46794        3.30750        1.35327
H          1.90657        2.73468        2.16417
H          1.75531        5.23424        2.14821
H          4.04186        5.67756        1.26112
H          4.00516        4.15702        2.15066
H          5.22351        3.87510       -0.00326
H          3.93275        1.94953        0.88064
H          3.93341        1.94680       -0.88203
H          4.00663        4.15009       -2.15891
H          4.04280        5.67349       -1.27425
H          1.75683        5.22749       -2.16144
H          1.90784        2.72796       -2.16943
H          0.46875        3.30332       -1.36105
H          1.96054        6.46077       -0.00848
H          0.50792        5.46350       -0.00742
H          3.62071       -1.90214        1.31157
H          2.24364       -2.57522        2.16415
H          4.17808       -4.15615        2.15091
H          2.97257       -6.15181        1.26769
H          1.86771       -5.09932        2.14870
H          0.85271       -5.82323       -0.00875
H          0.29421       -3.59088        0.88352
H          0.29480       -3.58745       -0.89322
H          1.87080       -5.09167       -2.16219
H          2.97432       -6.14738       -1.28335
H          4.18127       -4.14873       -2.15765
H          2.24674       -2.56788       -2.16821
H          3.62267       -1.89781       -1.31145
H          4.94282       -5.14940       -0.00452
H          5.19894       -3.40617       -0.00134
