 xtb: 6.7.1 (edcfbbe)
          12202402103D

 53 52  0     0  0            999 V2000
    2.3386   -2.1288   -0.7087 C   0  0  0  0  0  0  0  0  0  0  0  0
    1.1304   -2.9456   -0.2597 C   0  0  0  0  0  0  0  0  0  0  0  0
    0.9947   -2.9968    1.2659 C   0  0  0  0  0  0  0  0  0  0  0  0
    0.3694   -1.7837    1.9660 C   0  0  0  0  0  0  0  0  0  0  0  0
   -1.1142   -1.5650    1.8499 N   0  0  0  0  0  0  0  0  0  0  0  0
   -1.8535   -2.8658    1.7015 C   0  0  0  0  0  0  0  0  0  0  0  0
   -1.7203   -3.8785    2.8507 C   0  0  0  0  0  0  0  0  0  0  0  0
   -2.9749   -3.9981    3.7257 C   0  0  0  0  0  0  0  0  0  0  0  0
   -4.1290   -4.6820    3.0021 C   0  0  0  0  0  0  0  0  0  0  0  0
   -1.6145   -0.9461    3.1211 C   0  0  0  0  0  0  0  0  0  0  0  0
   -1.0305    0.3976    3.5370 C   0  0  0  0  0  0  0  0  0  0  0  0
   -1.6099    0.8338    4.8898 C   0  0  0  0  0  0  0  0  0  0  0  0
   -1.1705   -0.0394    6.0601 C   0  0  0  0  0  0  0  0  0  0  0  0
   -1.5321   -0.7127    0.6638 C   0  0  0  0  0  0  0  0  0  0  0  0
   -0.5266    0.1511   -0.1056 C   0  0  0  0  0  0  0  0  0  0  0  0
   -0.0453    1.4576    0.5251 C   0  0  0  0  0  0  0  0  0  0  0  0
    0.7749    2.2537   -0.4852 C   0  0  0  0  0  0  0  0  0  0  0  0
    2.3408   -1.1272   -0.2839 H   0  0  0  0  0  0  0  0  0  0  0  0
    2.3541   -2.0404   -1.7915 H   0  0  0  0  0  0  0  0  0  0  0  0
    3.2569   -2.6203   -0.3984 H   0  0  0  0  0  0  0  0  0  0  0  0
    0.2194   -2.5653   -0.7239 H   0  0  0  0  0  0  0  0  0  0  0  0
    1.2644   -3.9668   -0.6195 H   0  0  0  0  0  0  0  0  0  0  0  0
    0.4787   -3.9092    1.5566 H   0  0  0  0  0  0  0  0  0  0  0  0
    2.0039   -3.0742    1.6780 H   0  0  0  0  0  0  0  0  0  0  0  0
    0.5845   -1.8962    3.0300 H   0  0  0  0  0  0  0  0  0  0  0  0
    0.8640   -0.8763    1.6286 H   0  0  0  0  0  0  0  0  0  0  0  0
   -2.9098   -2.6147    1.5852 H   0  0  0  0  0  0  0  0  0  0  0  0
   -1.5155   -3.3194    0.7700 H   0  0  0  0  0  0  0  0  0  0  0  0
   -1.5363   -4.8634    2.4169 H   0  0  0  0  0  0  0  0  0  0  0  0
   -0.8608   -3.6510    3.4804 H   0  0  0  0  0  0  0  0  0  0  0  0
   -2.7170   -4.5926    4.6033 H   0  0  0  0  0  0  0  0  0  0  0  0
   -3.2990   -3.0181    4.0799 H   0  0  0  0  0  0  0  0  0  0  0  0
   -3.8364   -5.6754    2.6722 H   0  0  0  0  0  0  0  0  0  0  0  0
   -4.9775   -4.7846    3.6721 H   0  0  0  0  0  0  0  0  0  0  0  0
   -4.4560   -4.1160    2.1327 H   0  0  0  0  0  0  0  0  0  0  0  0
   -2.6972   -0.8372    3.0225 H   0  0  0  0  0  0  0  0  0  0  0  0
   -1.4209   -1.6572    3.9220 H   0  0  0  0  0  0  0  0  0  0  0  0
    0.0541    0.3408    3.6307 H   0  0  0  0  0  0  0  0  0  0  0  0
   -1.2759    1.1632    2.8042 H   0  0  0  0  0  0  0  0  0  0  0  0
   -1.2773    1.8557    5.0753 H   0  0  0  0  0  0  0  0  0  0  0  0
   -2.6998    0.8499    4.8338 H   0  0  0  0  0  0  0  0  0  0  0  0
   -0.0867   -0.1329    6.0861 H   0  0  0  0  0  0  0  0  0  0  0  0
   -1.4898    0.4144    6.9934 H   0  0  0  0  0  0  0  0  0  0  0  0
   -1.6081   -1.0347    6.0160 H   0  0  0  0  0  0  0  0  0  0  0  0
   -1.9531   -1.3962   -0.0755 H   0  0  0  0  0  0  0  0  0  0  0  0
   -2.3420   -0.0684    1.0087 H   0  0  0  0  0  0  0  0  0  0  0  0
    0.3326   -0.4337   -0.4220 H   0  0  0  0  0  0  0  0  0  0  0  0
   -1.0600    0.4239   -1.0209 H   0  0  0  0  0  0  0  0  0  0  0  0
   -0.9041    2.0590    0.8288 H   0  0  0  0  0  0  0  0  0  0  0  0
    0.5732    1.2751    1.4049 H   0  0  0  0  0  0  0  0  0  0  0  0
    0.1779    2.4939   -1.3610 H   0  0  0  0  0  0  0  0  0  0  0  0
    1.1180    3.1836   -0.0413 H   0  0  0  0  0  0  0  0  0  0  0  0
    1.6460    1.6887   -0.8092 H   0  0  0  0  0  0  0  0  0  0  0  0
  1  2  1  0  0  0  0
  2  3  1  0  0  0  0
  3  4  1  0  0  0  0
  4  5  1  0  0  0  0
  5  6  1  0  0  0  0
  6  7  1  0  0  0  0
  7  8  1  0  0  0  0
  8  9  1  0  0  0  0
  5 10  1  0  0  0  0
 10 11  1  0  0  0  0
 11 12  1  0  0  0  0
 12 13  1  0  0  0  0
  5 14  1  0  0  0  0
 14 15  1  0  0  0  0
 15 16  1  0  0  0  0
 16 17  1  0  0  0  0
  1 18  1  0  0  0  0
  1 19  1  0  0  0  0
  1 20  1  0  0  0  0
  2 21  1  0  0  0  0
  2 22  1  0  0  0  0
  3 23  1  0  0  0  0
  3 24  1  0  0  0  0
  4 25  1  0  0  0  0
  4 26  1  0  0  0  0
  6 27  1  0  0  0  0
  6 28  1  0  0  0  0
  7 29  1  0  0  0  0
  7 30  1  0  0  0  0
  8 31  1  0  0  0  0
  8 32  1  0  0  0  0
  9 33  1  0  0  0  0
  9 34  1  0  0  0  0
  9 35  1  0  0  0  0
 10 36  1  0  0  0  0
 10 37  1  0  0  0  0
 11 38  1  0  0  0  0
 11 39  1  0  0  0  0
 12 40  1  0  0  0  0
 12 41  1  0  0  0  0
 13 42  1  0  0  0  0
 13 43  1  0  0  0  0
 13 44  1  0  0  0  0
 14 45  1  0  0  0  0
 14 46  1  0  0  0  0
 15 47  1  0  0  0  0
 15 48  1  0  0  0  0
 16 49  1  0  0  0  0
 16 50  1  0  0  0  0
 17 51  1  0  0  0  0
 17 52  1  0  0  0  0
 17 53  1  0  0  0  0
M  CHG  1   1   1
M  END
