 xtb: 6.7.1 (edcfbbe)
          12202402103D

 80 79  0     0  0            999 V2000
    1.6856   -0.2083    0.6367 C   0  0  0  0  0  0  0  0  0  0  0  0
    1.5022    0.5767    1.9299 C   0  0  0  0  0  0  0  0  0  0  0  0
    1.4032    2.0873    1.7113 C   0  0  0  0  0  0  0  0  0  0  0  0
    0.2212    2.5407    0.8510 C   0  0  0  0  0  0  0  0  0  0  0  0
   -1.1549    2.1210    1.3725 C   0  0  0  0  0  0  0  0  0  0  0  0
   -1.4821    2.6041    2.7864 C   0  0  0  0  0  0  0  0  0  0  0  0
   -1.4164    4.1175    2.9945 C   0  0  0  0  0  0  0  0  0  0  0  0
   -2.2692    4.9551    2.0366 C   0  0  0  0  0  0  0  0  0  0  0  0
   -4.0806    4.9065    2.2659 P   0  0  0  0  0  0  0  0  0  0  0  0
   -4.5305    5.2930    3.9975 C   0  0  0  0  0  0  0  0  0  0  0  0
   -3.7489    6.4068    4.7004 C   0  0  0  0  0  0  0  0  0  0  0  0
   -3.9652    7.8163    4.1511 C   0  0  0  0  0  0  0  0  0  0  0  0
   -5.4133    8.3102    4.1873 C   0  0  0  0  0  0  0  0  0  0  0  0
   -6.0496    8.3270    5.5795 C   0  0  0  0  0  0  0  0  0  0  0  0
   -5.3084    9.1688    6.6205 C   0  0  0  0  0  0  0  0  0  0  0  0
   -5.1403   10.6444    6.2548 C   0  0  0  0  0  0  0  0  0  0  0  0
   -6.4659   11.3791    6.0952 C   0  0  0  0  0  0  0  0  0  0  0  0
   -4.8743    6.1007    1.1234 C   0  0  0  0  0  0  0  0  0  0  0  0
   -4.2101    6.2665   -0.2453 C   0  0  0  0  0  0  0  0  0  0  0  0
   -4.2362    5.0196   -1.1275 C   0  0  0  0  0  0  0  0  0  0  0  0
   -5.6347    4.5241   -1.5036 C   0  0  0  0  0  0  0  0  0  0  0  0
   -6.5054    5.5484   -2.2355 C   0  0  0  0  0  0  0  0  0  0  0  0
   -5.9118    6.0892   -3.5381 C   0  0  0  0  0  0  0  0  0  0  0  0
   -5.6250    5.0297   -4.6034 C   0  0  0  0  0  0  0  0  0  0  0  0
   -6.8772    4.3043   -5.0812 C   0  0  0  0  0  0  0  0  0  0  0  0
   -4.8251    3.2754    1.9653 C   0  0  0  0  0  0  0  0  0  0  0  0
    0.8031   -0.1446    0.0047 H   0  0  0  0  0  0  0  0  0  0  0  0
    1.8647   -1.2573    0.8583 H   0  0  0  0  0  0  0  0  0  0  0  0
    2.5379    0.1721    0.0788 H   0  0  0  0  0  0  0  0  0  0  0  0
    0.6169    0.2129    2.4553 H   0  0  0  0  0  0  0  0  0  0  0  0
    2.3605    0.3893    2.5785 H   0  0  0  0  0  0  0  0  0  0  0  0
    1.3601    2.5803    2.6852 H   0  0  0  0  0  0  0  0  0  0  0  0
    2.3187    2.4256    1.2210 H   0  0  0  0  0  0  0  0  0  0  0  0
    0.2649    3.6287    0.7559 H   0  0  0  0  0  0  0  0  0  0  0  0
    0.3383    2.1309   -0.1532 H   0  0  0  0  0  0  0  0  0  0  0  0
   -1.9153    2.4759    0.6705 H   0  0  0  0  0  0  0  0  0  0  0  0
   -1.2155    1.0323    1.3718 H   0  0  0  0  0  0  0  0  0  0  0  0
   -2.4726    2.2365    3.0614 H   0  0  0  0  0  0  0  0  0  0  0  0
   -0.7745    2.1512    3.4818 H   0  0  0  0  0  0  0  0  0  0  0  0
   -1.6914    4.3325    4.0288 H   0  0  0  0  0  0  0  0  0  0  0  0
   -0.3825    4.4414    2.8637 H   0  0  0  0  0  0  0  0  0  0  0  0
   -2.0037    6.0123    2.1511 H   0  0  0  0  0  0  0  0  0  0  0  0
   -2.0584    4.6732    1.0035 H   0  0  0  0  0  0  0  0  0  0  0  0
   -5.6014    5.5142    4.0047 H   0  0  0  0  0  0  0  0  0  0  0  0
   -4.3872    4.3593    4.5516 H   0  0  0  0  0  0  0  0  0  0  0  0
   -4.0425    6.3918    5.7511 H   0  0  0  0  0  0  0  0  0  0  0  0
   -2.6808    6.1855    4.6658 H   0  0  0  0  0  0  0  0  0  0  0  0
   -3.3525    8.4963    4.7437 H   0  0  0  0  0  0  0  0  0  0  0  0
   -3.5894    7.8700    3.1246 H   0  0  0  0  0  0  0  0  0  0  0  0
   -5.4323    9.3210    3.7779 H   0  0  0  0  0  0  0  0  0  0  0  0
   -6.0396    7.6937    3.5355 H   0  0  0  0  0  0  0  0  0  0  0  0
   -7.0666    8.7078    5.4772 H   0  0  0  0  0  0  0  0  0  0  0  0
   -6.1321    7.3053    5.9587 H   0  0  0  0  0  0  0  0  0  0  0  0
   -5.8679    9.1068    7.5564 H   0  0  0  0  0  0  0  0  0  0  0  0
   -4.3221    8.7383    6.8080 H   0  0  0  0  0  0  0  0  0  0  0  0
   -4.5681   11.1231    7.0521 H   0  0  0  0  0  0  0  0  0  0  0  0
   -4.5565   10.7411    5.3372 H   0  0  0  0  0  0  0  0  0  0  0  0
   -7.0783   11.2551    6.9851 H   0  0  0  0  0  0  0  0  0  0  0  0
   -6.2893   12.4416    5.9487 H   0  0  0  0  0  0  0  0  0  0  0  0
   -7.0241   11.0104    5.2381 H   0  0  0  0  0  0  0  0  0  0  0  0
   -5.9124    5.7779    1.0072 H   0  0  0  0  0  0  0  0  0  0  0  0
   -4.8874    7.0691    1.6263 H   0  0  0  0  0  0  0  0  0  0  0  0
   -4.7269    7.0753   -0.7634 H   0  0  0  0  0  0  0  0  0  0  0  0
   -3.1746    6.5870   -0.1118 H   0  0  0  0  0  0  0  0  0  0  0  0
   -3.6885    5.2462   -2.0427 H   0  0  0  0  0  0  0  0  0  0  0  0
   -3.6983    4.2081   -0.6271 H   0  0  0  0  0  0  0  0  0  0  0  0
   -5.5179    3.6439   -2.1370 H   0  0  0  0  0  0  0  0  0  0  0  0
   -6.1693    4.1985   -0.6072 H   0  0  0  0  0  0  0  0  0  0  0  0
   -7.4641    5.0765   -2.4541 H   0  0  0  0  0  0  0  0  0  0  0  0
   -6.7142    6.3934   -1.5747 H   0  0  0  0  0  0  0  0  0  0  0  0
   -6.6198    6.8106   -3.9517 H   0  0  0  0  0  0  0  0  0  0  0  0
   -4.9887    6.6327   -3.3241 H   0  0  0  0  0  0  0  0  0  0  0  0
   -5.1629    5.5301   -5.4570 H   0  0  0  0  0  0  0  0  0  0  0  0
   -4.9026    4.3025   -4.2271 H   0  0  0  0  0  0  0  0  0  0  0  0
   -7.6229    5.0188   -5.4219 H   0  0  0  0  0  0  0  0  0  0  0  0
   -6.6344    3.6445   -5.9101 H   0  0  0  0  0  0  0  0  0  0  0  0
   -7.3140    3.7011   -4.2890 H   0  0  0  0  0  0  0  0  0  0  0  0
   -4.4784    2.8524    1.0258 H   0  0  0  0  0  0  0  0  0  0  0  0
   -4.5824    2.5912    2.7753 H   0  0  0  0  0  0  0  0  0  0  0  0
   -5.9077    3.3940    1.9237 H   0  0  0  0  0  0  0  0  0  0  0  0
  1  2  1  0  0  0  0
  2  3  1  0  0  0  0
  3  4  1  0  0  0  0
  4  5  1  0  0  0  0
  5  6  1  0  0  0  0
  6  7  1  0  0  0  0
  7  8  1  0  0  0  0
  8  9  1  0  0  0  0
  9 10  1  0  0  0  0
 10 11  1  0  0  0  0
 11 12  1  0  0  0  0
 12 13  1  0  0  0  0
 13 14  1  0  0  0  0
 14 15  1  0  0  0  0
 15 16  1  0  0  0  0
 16 17  1  0  0  0  0
  9 18  1  0  0  0  0
 18 19  1  0  0  0  0
 19 20  1  0  0  0  0
 20 21  1  0  0  0  0
 21 22  1  0  0  0  0
 22 23  1  0  0  0  0
 23 24  1  0  0  0  0
 24 25  1  0  0  0  0
  9 26  1  0  0  0  0
  1 27  1  0  0  0  0
  1 28  1  0  0  0  0
  1 29  1  0  0  0  0
  2 30  1  0  0  0  0
  2 31  1  0  0  0  0
  3 32  1  0  0  0  0
  3 33  1  0  0  0  0
  4 34  1  0  0  0  0
  4 35  1  0  0  0  0
  5 36  1  0  0  0  0
  5 37  1  0  0  0  0
  6 38  1  0  0  0  0
  6 39  1  0  0  0  0
  7 40  1  0  0  0  0
  7 41  1  0  0  0  0
  8 42  1  0  0  0  0
  8 43  1  0  0  0  0
 10 44  1  0  0  0  0
 10 45  1  0  0  0  0
 11 46  1  0  0  0  0
 11 47  1  0  0  0  0
 12 48  1  0  0  0  0
 12 49  1  0  0  0  0
 13 50  1  0  0  0  0
 13 51  1  0  0  0  0
 14 52  1  0  0  0  0
 14 53  1  0  0  0  0
 15 54  1  0  0  0  0
 15 55  1  0  0  0  0
 16 56  1  0  0  0  0
 16 57  1  0  0  0  0
 17 58  1  0  0  0  0
 17 59  1  0  0  0  0
 17 60  1  0  0  0  0
 18 61  1  0  0  0  0
 18 62  1  0  0  0  0
 19 63  1  0  0  0  0
 19 64  1  0  0  0  0
 20 65  1  0  0  0  0
 20 66  1  0  0  0  0
 21 67  1  0  0  0  0
 21 68  1  0  0  0  0
 22 69  1  0  0  0  0
 22 70  1  0  0  0  0
 23 71  1  0  0  0  0
 23 72  1  0  0  0  0
 24 73  1  0  0  0  0
 24 74  1  0  0  0  0
 25 75  1  0  0  0  0
 25 76  1  0  0  0  0
 25 77  1  0  0  0  0
 26 78  1  0  0  0  0
 26 79  1  0  0  0  0
 26 80  1  0  0  0  0
M  CHG  1   1   1
M  END
