39

C         -0.20405       -0.99164        0.18784
C         -0.67846       -0.33919        1.47999
C          0.45168        0.22831        2.34139
O          0.78251        1.58046        2.03266
C          1.59886        1.75255        0.89722
N          2.91953        2.16745        1.33787
C          3.80367        1.42666        2.10305
C          4.97206        2.13019        2.14583
N          4.77134        3.27266        1.39365
C          3.48681        3.33696        1.01195
C          5.76335        4.27636        1.06307
O          5.58951        4.67933       -0.28195
C          5.82927        3.68759       -1.28164
C          7.27944        3.21130       -1.38159
C          7.58699        1.88570       -0.67306
C          6.79225        0.69972       -1.20244
H          0.07894       -0.24634       -0.55992
H         -1.00877       -1.59342       -0.24679
H          0.65041       -1.65300        0.36557
H         -1.41203        0.43942        1.24447
H         -1.19053       -1.11415        2.06294
H          0.10137        0.24595        3.37966
H          1.34275       -0.40822        2.32299
H          1.71866        0.85230        0.29140
H          1.16504        2.54278        0.27639
H          3.49375        0.47740        2.50287
H          5.93566        1.94684        2.58987
H          3.02390        4.15172        0.46495
H          5.58845        5.14408        1.70711
H          6.77805        3.91690        1.24957
H          5.11407        2.86797       -1.17793
H          5.57774        4.17994       -2.22835
H          7.52032        3.07273       -2.44347
H          7.95528        3.98502       -0.99962
H          8.65372        1.66938       -0.80950
H          7.42816        1.97250        0.40463
H          6.88871        0.61205       -2.28903
H          7.16191       -0.22833       -0.75403
H          5.73029        0.77924       -0.95366
