38

O          0.28448       -1.77619       -0.12747
C          1.44024       -1.40795       -0.30041
C          2.52777       -2.08673        0.44586
C          3.56085       -1.36382        1.05325
C          4.61322       -2.04689        1.67103
C          4.61870       -3.45099        1.68721
C          3.56310       -4.17398        1.11629
C          2.51249       -3.48701        0.50248
N          5.75522       -4.16560        2.28480
O          6.72502       -3.48521        2.64636
O          5.68766       -5.39893        2.35032
C          1.79343       -0.29692       -1.28033
N          3.08228       -0.50983       -1.97100
C          4.12657        0.32791       -1.88244
N          5.15482       -0.19931       -2.56033
C          4.75050       -1.37242       -3.18552
C          3.40651       -1.56245       -2.82900
C          2.65737       -2.64542       -3.28581
C          3.34484       -3.54490       -4.12460
C          4.70204       -3.36130       -4.48140
C          5.43521       -2.26088       -4.01222
N          2.62337       -4.71895       -4.63417
O          1.54748       -4.99531       -4.09030
O          3.14113       -5.34673       -5.56420
C          6.48577        0.39811       -2.61253
H          3.55501       -0.27771        1.07720
H          5.41559       -1.48044        2.14303
H          3.54394       -5.26325        1.14079
H          1.68803       -4.05009        0.06423
H          1.01886       -0.25158       -2.05418
H          1.81348        0.65882       -0.74806
H          4.14901        1.25821       -1.32576
H          1.61761       -2.77586       -3.00659
H          5.20415       -4.08107       -5.13193
H          6.47490       -2.11213       -4.28019
H          6.40728        1.47675       -2.45105
H          7.09868       -0.04637       -1.82381
H          6.94320        0.21879       -3.58834
