 xtb: 6.7.1 (edcfbbe)
          12202402113D

 38 42  0     0  0            999 V2000
    0.2974   -1.6993   -0.3741 O   0  0  0  0  0  0  0  0  0  0  0  0
    1.4535   -1.3908   -0.4084 C   0  0  0  0  0  0  0  0  0  0  0  0
    2.5300   -2.1424    0.2756 C   0  0  0  0  0  0  0  0  0  0  0  0
    3.6660   -1.5178    0.7950 C   0  0  0  0  0  0  0  0  0  0  0  0
    4.6407   -2.2708    1.4183 C   0  0  0  0  0  0  0  0  0  0  0  0
    4.4786   -3.6466    1.5150 C   0  0  0  0  0  0  0  0  0  0  0  0
    3.3421   -4.2807    1.0332 C   0  0  0  0  0  0  0  0  0  0  0  0
    2.3652   -3.5230    0.4170 C   0  0  0  0  0  0  0  0  0  0  0  0
    5.5346   -4.4361    2.1390 N   0  0  0  0  0  0  0  0  0  0  0  0
    6.5754   -3.8640    2.3618 O   0  0  0  0  0  0  0  0  0  0  0  0
    5.2946   -5.5944    2.3643 O   0  0  0  0  0  0  0  0  0  0  0  0
    1.8921   -0.1533   -1.2363 C   0  0  0  0  0  0  0  0  0  0  0  0
    3.1423   -0.3449   -1.9219 N   0  0  0  0  0  0  0  0  0  0  0  0
    4.1828    0.4837   -1.9557 C   0  0  0  0  0  0  0  0  0  0  0  0
    5.1798   -0.0141   -2.6792 N   0  0  0  0  0  0  0  0  0  0  0  0
    4.7818   -1.2450   -3.1525 C   0  0  0  0  0  0  0  0  0  0  0  0
    3.4738   -1.4573   -2.6674 C   0  0  0  0  0  0  0  0  0  0  0  0
    2.7775   -2.6221   -2.9557 C   0  0  0  0  0  0  0  0  0  0  0  0
    3.4465   -3.5494   -3.7317 C   0  0  0  0  0  0  0  0  0  0  0  0
    4.7381   -3.3457   -4.2305 C   0  0  0  0  0  0  0  0  0  0  0  0
    5.4285   -2.1870   -3.9485 C   0  0  0  0  0  0  0  0  0  0  0  0
    2.7675   -4.8159   -4.0287 N   0  0  0  0  0  0  0  0  0  0  0  0
    1.7596   -5.0354   -3.4060 O   0  0  0  0  0  0  0  0  0  0  0  0
    3.2786   -5.5259   -4.8519 O   0  0  0  0  0  0  0  0  0  0  0  0
    6.4527    0.6045   -2.9363 C   0  0  0  0  0  0  0  0  0  0  0  0
    3.7704   -0.4440    0.7628 H   0  0  0  0  0  0  0  0  0  0  0  0
    5.5236   -1.8151    1.8409 H   0  0  0  0  0  0  0  0  0  0  0  0
    3.2378   -5.3487    1.1515 H   0  0  0  0  0  0  0  0  0  0  0  0
    1.4689   -3.9873    0.0348 H   0  0  0  0  0  0  0  0  0  0  0  0
    1.0918    0.0407   -1.9592 H   0  0  0  0  0  0  0  0  0  0  0  0
    1.9630    0.7093   -0.5691 H   0  0  0  0  0  0  0  0  0  0  0  0
    4.2118    1.4411   -1.4670 H   0  0  0  0  0  0  0  0  0  0  0  0
    1.7732   -2.8219   -2.6152 H   0  0  0  0  0  0  0  0  0  0  0  0
    5.1770   -4.1218   -4.8404 H   0  0  0  0  0  0  0  0  0  0  0  0
    6.4232   -2.0237   -4.3280 H   0  0  0  0  0  0  0  0  0  0  0  0
    6.5125    1.5595   -2.4198 H   0  0  0  0  0  0  0  0  0  0  0  0
    7.2586   -0.0423   -2.5872 H   0  0  0  0  0  0  0  0  0  0  0  0
    6.5783    0.7702   -4.0072 H   0  0  0  0  0  0  0  0  0  0  0  0
  1  2  2  0  0  0  0
  2  3  1  0  0  0  0
  3  4  4  0  0  0  0
  4  5  4  0  0  0  0
  5  6  4  0  0  0  0
  6  7  4  0  0  0  0
  3  8  4  0  0  0  0
  7  8  4  0  0  0  0
  6  9  1  0  0  0  0
  9 10  4  0  0  0  0
  9 11  4  0  0  0  0
 10 11  1  0  0  0  0
  2 12  1  0  0  0  0
 12 13  1  0  0  0  0
 13 14  4  0  0  0  0
 14 15  4  0  0  0  0
 15 16  1  0  0  0  0
 13 17  1  0  0  0  0
 16 17  4  0  0  0  0
 17 18  4  0  0  0  0
 18 19  4  0  0  0  0
 19 20  4  0  0  0  0
 16 21  4  0  0  0  0
 20 21  4  0  0  0  0
 19 22  1  0  0  0  0
 22 23  4  0  0  0  0
 22 24  4  0  0  0  0
 23 24  1  0  0  0  0
 15 25  1  0  0  0  0
  4 26  1  0  0  0  0
  5 27  1  0  0  0  0
  7 28  1  0  0  0  0
  8 29  1  0  0  0  0
 12 30  1  0  0  0  0
 12 31  1  0  0  0  0
 14 32  1  0  0  0  0
 18 33  1  0  0  0  0
 20 34  1  0  0  0  0
 21 35  1  0  0  0  0
 25 36  1  0  0  0  0
 25 37  1  0  0  0  0
 25 38  1  0  0  0  0
M  CHG  1   1   1
M  END
