 xtb: 6.7.1 (edcfbbe)
          12202402113D

 46 48  0     0  0            999 V2000
    1.2117   -0.9210    0.1524 O   0  0  0  0  0  0  0  0  0  0  0  0
    0.7176    0.2850    0.6864 C   0  0  0  0  0  0  0  0  0  0  0  0
    1.1550    0.3577    2.1584 C   0  0  0  0  0  0  0  0  0  0  0  0
    2.6354    0.2600    2.2739 C   0  0  0  0  0  0  0  0  0  0  0  0
    3.4943    1.3241    2.1905 N   0  0  0  0  0  0  0  0  0  0  0  0
    3.1714    2.7337    2.0819 C   0  0  0  0  0  0  0  0  0  0  0  0
    3.5875    3.4648    3.3384 C   0  0  0  0  0  0  0  0  0  0  0  0
    3.0303    3.1081    4.5608 C   0  0  0  0  0  0  0  0  0  0  0  0
    3.4116    3.7637    5.7175 C   0  0  0  0  0  0  0  0  0  0  0  0
    4.3501    4.7809    5.6608 C   0  0  0  0  0  0  0  0  0  0  0  0
    4.9080    5.1389    4.4456 C   0  0  0  0  0  0  0  0  0  0  0  0
    4.5321    4.4795    3.2875 C   0  0  0  0  0  0  0  0  0  0  0  0
    4.7377    0.8645    2.2966 C   0  0  0  0  0  0  0  0  0  0  0  0
    4.7119   -0.4584    2.4337 N   0  0  0  0  0  0  0  0  0  0  0  0
    3.4064   -0.8705    2.4088 C   0  0  0  0  0  0  0  0  0  0  0  0
    2.9818   -2.2858    2.5130 C   0  0  0  0  0  0  0  0  0  0  0  0
    5.9021   -1.2804    2.5282 C   0  0  0  0  0  0  0  0  0  0  0  0
    6.7426   -1.1383    1.2796 C   0  0  0  0  0  0  0  0  0  0  0  0
    6.1883   -1.4269    0.0380 C   0  0  0  0  0  0  0  0  0  0  0  0
    6.9489   -1.2965   -1.1099 C   0  0  0  0  0  0  0  0  0  0  0  0
    8.2672   -0.8796   -1.0260 C   0  0  0  0  0  0  0  0  0  0  0  0
    8.8222   -0.5898    0.2083 C   0  0  0  0  0  0  0  0  0  0  0  0
    8.0610   -0.7139    1.3583 C   0  0  0  0  0  0  0  0  0  0  0  0
    0.8381   -1.0627   -0.7238 H   0  0  0  0  0  0  0  0  0  0  0  0
    1.1191    1.1438    0.1280 H   0  0  0  0  0  0  0  0  0  0  0  0
   -0.3773    0.3213    0.6410 H   0  0  0  0  0  0  0  0  0  0  0  0
    0.7809    1.2805    2.6008 H   0  0  0  0  0  0  0  0  0  0  0  0
    0.7093   -0.4829    2.6897 H   0  0  0  0  0  0  0  0  0  0  0  0
    3.6945    3.1473    1.2157 H   0  0  0  0  0  0  0  0  0  0  0  0
    2.0975    2.8342    1.9176 H   0  0  0  0  0  0  0  0  0  0  0  0
    2.2938    2.3184    4.6086 H   0  0  0  0  0  0  0  0  0  0  0  0
    2.9718    3.4840    6.6620 H   0  0  0  0  0  0  0  0  0  0  0  0
    4.6431    5.2952    6.5625 H   0  0  0  0  0  0  0  0  0  0  0  0
    5.6369    5.9324    4.3963 H   0  0  0  0  0  0  0  0  0  0  0  0
    4.9665    4.7649    2.3402 H   0  0  0  0  0  0  0  0  0  0  0  0
    5.6240    1.4666    2.2737 H   0  0  0  0  0  0  0  0  0  0  0  0
    3.6219   -2.9309    1.9157 H   0  0  0  0  0  0  0  0  0  0  0  0
    3.0132   -2.6296    3.5470 H   0  0  0  0  0  0  0  0  0  0  0  0
    1.9685   -2.3833    2.1368 H   0  0  0  0  0  0  0  0  0  0  0  0
    6.4762   -0.9704    3.4057 H   0  0  0  0  0  0  0  0  0  0  0  0
    5.5940   -2.3180    2.6673 H   0  0  0  0  0  0  0  0  0  0  0  0
    5.1612   -1.7561   -0.0322 H   0  0  0  0  0  0  0  0  0  0  0  0
    6.5137   -1.5265   -2.0701 H   0  0  0  0  0  0  0  0  0  0  0  0
    8.8612   -0.7838   -1.9213 H   0  0  0  0  0  0  0  0  0  0  0  0
    9.8486   -0.2661    0.2787 H   0  0  0  0  0  0  0  0  0  0  0  0
    8.4988   -0.4907    2.3204 H   0  0  0  0  0  0  0  0  0  0  0  0
  1  2  1  0  0  0  0
  2  3  1  0  0  0  0
  3  4  1  0  0  0  0
  4  5  1  0  0  0  0
  5  6  1  0  0  0  0
  6  7  1  0  0  0  0
  7  8  4  0  0  0  0
  8  9  4  0  0  0  0
  9 10  4  0  0  0  0
 10 11  4  0  0  0  0
  7 12  4  0  0  0  0
 11 12  4  0  0  0  0
  5 13  4  0  0  0  0
 13 14  4  0  0  0  0
  4 15  2  0  0  0  0
 14 15  1  0  0  0  0
 15 16  1  0  0  0  0
 14 17  1  0  0  0  0
 17 18  1  0  0  0  0
 18 19  4  0  0  0  0
 19 20  4  0  0  0  0
 20 21  4  0  0  0  0
 21 22  4  0  0  0  0
 18 23  4  0  0  0  0
 22 23  4  0  0  0  0
  1 24  1  0  0  0  0
  2 25  1  0  0  0  0
  2 26  1  0  0  0  0
  3 27  1  0  0  0  0
  3 28  1  0  0  0  0
  6 29  1  0  0  0  0
  6 30  1  0  0  0  0
  8 31  1  0  0  0  0
  9 32  1  0  0  0  0
 10 33  1  0  0  0  0
 11 34  1  0  0  0  0
 12 35  1  0  0  0  0
 13 36  1  0  0  0  0
 16 37  1  0  0  0  0
 16 38  1  0  0  0  0
 16 39  1  0  0  0  0
 17 40  1  0  0  0  0
 17 41  1  0  0  0  0
 19 42  1  0  0  0  0
 20 43  1  0  0  0  0
 21 44  1  0  0  0  0
 22 45  1  0  0  0  0
 23 46  1  0  0  0  0
M  CHG  1   1   1
M  END
