40

C          1.71939       -0.13542        0.11569
C          0.63543       -0.59007        1.07903
C          0.58537        0.23280        2.36298
N          0.36246        1.65899        2.12643
C          1.26517        2.63001        2.21728
N          2.57419        2.43409        2.38161
N          0.67707        3.81262        2.10302
C         -0.66278        3.61219        1.76997
C         -0.86959        2.22992        1.80771
C         -2.11465        1.65866        1.55408
C         -3.14964        2.54706        1.23589
C         -2.94043        3.93759        1.18809
C         -1.68793        4.50386        1.46088
C          1.29597        5.11260        2.33510
C          1.13618        5.48301        3.78893
C          1.97176        4.93176        4.77382
C          1.80598        5.26766        6.11927
C          0.80429        6.15684        6.49856
C         -0.03273        6.71180        5.53436
C          0.13017        6.37695        4.18846
H          1.52477        0.87727       -0.25066
H          1.75295       -0.80192       -0.75211
H          2.70381       -0.14985        0.59280
H         -0.33142       -0.54992        0.56637
H          0.81013       -1.63977        1.34267
H         -0.22355       -0.13350        3.00662
H          1.50896        0.10002        2.93566
H          2.95812        1.50326        2.42268
H          3.22355        3.20426        2.38909
H         -2.27381        0.58897        1.59272
H         -4.14280        2.15261        1.01895
H         -3.77668        4.58983        0.93443
H         -1.53001        5.57348        1.42593
H          2.35530        5.08283        2.06108
H          0.83709        5.86329        1.68214
H          2.76542        4.23849        4.51454
H          2.45924        4.83886        6.87620
H          0.67707        6.42015        7.54640
H         -0.81279        7.40875        5.83364
H         -0.53763        6.82929        3.45884
