24

C         -2.42270       -0.07700        0.08552
N         -0.95128       -0.01835        0.05535
C         -0.25501       -1.17455       -0.02529
C          1.12990       -1.16050       -0.07669
C          1.79353        0.06029       -0.04364
C          1.07761        1.26034        0.05249
C         -0.31558        1.17710        0.09532
C          1.77125        2.55372        0.05645
C          1.47523        3.57719        0.95544
C          2.18552        4.77319        0.87111
C          3.16628        4.91773       -0.10171
C          3.40085        3.85397       -0.95350
N          2.72603        2.68293       -0.89410
H         -2.75644       -0.60911       -0.80930
H         -2.71556       -0.61141        0.99306
H         -2.83960        0.93265        0.09412
H         -0.82049       -2.10188       -0.05528
H          1.69261       -2.08824       -0.15223
H          2.88350        0.08174       -0.10196
H         -0.93910        2.06587        0.13830
H          0.72580        3.45965        1.73082
H          1.98295        5.58584        1.56468
H          3.73901        5.83522       -0.19027
H          4.16024        3.91540       -1.72900
