34

C          1.22791       -0.31417        0.05453
O          0.55816       -0.88153        1.18640
C          1.02097       -2.11192        1.55317
O          1.94518       -2.71047        1.02273
C          0.26341       -2.60948        2.77567
N          0.66398       -1.88672        4.00137
C          1.29825       -2.43318        5.10533
C          1.56088       -1.41332        5.99361
N          1.07906       -0.24978        5.35202
C          0.50011       -0.56943        4.18368
C          1.25506        1.15136        5.80363
C          2.04884        1.92914        4.76197
O          1.64701        2.09794        3.61512
O          3.26851        2.28512        5.23787
C          4.13695        2.90504        4.28326
C          2.20393       -1.51543        7.28317
O          2.43856       -0.62323        8.09096
O          2.52463       -2.82650        7.48933
C          3.16440       -3.08661        8.74506
H          0.81999        0.68692       -0.11070
H          1.04053       -0.91969       -0.83724
H          2.30140       -0.22343        0.24706
H         -0.81312       -2.48310        2.62309
H          0.46084       -3.67922        2.90104
H          1.49462       -3.49341        5.12203
H          0.01790        0.12110        3.49775
H          0.26620        1.60952        5.90880
H          1.75116        1.20310        6.77231
H          4.07395        2.42186        3.30265
H          3.89381        3.96795        4.20595
H          5.16342        2.80157        4.64582
H          4.10447       -2.53092        8.81814
H          2.49511       -2.83104        9.57246
H          3.38745       -4.15571        8.79538
