30

C          0.20779        0.16540        0.21735
N          0.05877        0.06656       -1.22859
C          0.24435        1.09654       -2.13574
C          0.02753        0.57148       -3.37808
N         -0.27813       -0.76683       -3.19625
C         -0.27437       -1.05535       -1.88471
C         -0.56789       -1.74591       -4.25936
C          0.65519       -2.60371       -4.65231
C          1.09666       -3.51583       -3.52652
C          0.36485       -4.66999       -3.20292
C          0.75695       -5.48267       -2.13896
C          1.88013       -5.15107       -1.38478
C          2.61740       -4.01082       -1.69675
C          2.23077       -3.19761       -2.76309
O          0.34302       -3.37513       -5.81105
H         -0.26846       -0.69294        0.69844
H         -0.26621        1.08522        0.57032
H          1.27334        0.17798        0.46134
H          0.51001        2.07536       -1.77461
H          0.05525        0.97761       -4.37489
H         -0.48957       -2.01983       -1.43686
H         -1.40194       -2.37494       -3.92386
H         -0.93515       -1.20133       -5.13811
H          1.48148       -1.93976       -4.93256
H         -0.50867       -4.95663       -3.78804
H          0.19592       -6.38600       -1.90667
H          2.19294       -5.79512       -0.56521
H          3.50608       -3.76815       -1.11752
H          2.83053       -2.31910       -2.99519
H          1.02421       -4.06882       -5.89685
