 xtb: 6.7.1 (edcfbbe)
          12202402113D

 14 14  0     0  0            999 V2000
    0.9199    0.0112   -0.0934 C   0  0  0  0  0  0  0  0  0  0  0  0
    0.5577    1.3960   -0.1647 N   0  0  0  0  0  0  0  0  0  0  0  0
    1.3317    2.4751    0.0273 C   0  0  0  0  0  0  0  0  0  0  0  0
    0.5082    3.5677   -0.1236 C   0  0  0  0  0  0  0  0  0  0  0  0
   -0.7099    3.0482   -0.4005 N   0  0  0  0  0  0  0  0  0  0  0  0
   -0.6759    1.7491   -0.4302 N   0  0  0  0  0  0  0  0  0  0  0  0
   -1.8654    3.7107   -0.5369 N   0  0  0  0  0  0  0  0  0  0  0  0
    0.4923   -0.5199   -0.9433 H   0  0  0  0  0  0  0  0  0  0  0  0
    0.5214   -0.4322    0.8208 H   0  0  0  0  0  0  0  0  0  0  0  0
    2.0027   -0.0861   -0.1008 H   0  0  0  0  0  0  0  0  0  0  0  0
    2.3771    2.4239    0.2531 H   0  0  0  0  0  0  0  0  0  0  0  0
    0.7068    4.6164   -0.0509 H   0  0  0  0  0  0  0  0  0  0  0  0
   -2.6292    3.1337   -0.8665 H   0  0  0  0  0  0  0  0  0  0  0  0
   -1.8036    4.6388   -0.9335 H   0  0  0  0  0  0  0  0  0  0  0  0
  1  2  1  0  0  0  0
  2  3  4  0  0  0  0
  3  4  4  0  0  0  0
  4  5  4  0  0  0  0
  2  6  4  0  0  0  0
  5  6  4  0  0  0  0
  5  7  1  0  0  0  0
  1  8  1  0  0  0  0
  1  9  1  0  0  0  0
  1 10  1  0  0  0  0
  3 11  1  0  0  0  0
  4 12  1  0  0  0  0
  7 13  1  0  0  0  0
  7 14  1  0  0  0  0
M  CHG  1   1   1
M  END
