 xtb: 6.7.1 (edcfbbe)
          12202402113D

 88 88  0     0  0            999 V2000
    0.8644    0.7417   -0.4867 C   0  0  0  0  0  0  0  0  0  0  0  0
    0.3738    2.1457   -0.1551 C   0  0  0  0  0  0  0  0  0  0  0  0
    1.3819    3.2412   -0.5073 C   0  0  0  0  0  0  0  0  0  0  0  0
    1.7402    3.3405   -1.9924 C   0  0  0  0  0  0  0  0  0  0  0  0
    0.5511    3.5156   -2.9386 C   0  0  0  0  0  0  0  0  0  0  0  0
   -0.3256    4.7362   -2.6523 C   0  0  0  0  0  0  0  0  0  0  0  0
    0.3606    6.0887   -2.8517 C   0  0  0  0  0  0  0  0  0  0  0  0
    0.8082    6.3810   -4.2869 C   0  0  0  0  0  0  0  0  0  0  0  0
   -0.2732    6.1942   -5.3536 C   0  0  0  0  0  0  0  0  0  0  0  0
   -1.5060    7.0674   -5.1253 C   0  0  0  0  0  0  0  0  0  0  0  0
   -2.6001    6.8500   -6.1736 C   0  0  0  0  0  0  0  0  0  0  0  0
   -3.2864    5.4893   -6.0484 C   0  0  0  0  0  0  0  0  0  0  0  0
   -3.9976    5.3250   -4.8213 O   0  0  0  0  0  0  0  0  0  0  0  0
   -5.2683    5.7818   -4.6796 C   0  0  0  0  0  0  0  0  0  0  0  0
   -5.9384    6.5020   -5.6660 C   0  0  0  0  0  0  0  0  0  0  0  0
   -7.2434    6.9170   -5.4921 C   0  0  0  0  0  0  0  0  0  0  0  0
   -7.9088    6.6181   -4.3198 C   0  0  0  0  0  0  0  0  0  0  0  0
   -7.2586    5.9114   -3.3233 C   0  0  0  0  0  0  0  0  0  0  0  0
   -5.9473    5.4853   -3.4772 C   0  0  0  0  0  0  0  0  0  0  0  0
   -5.2433    4.7546   -2.3852 N   0  0  0  0  0  0  0  0  0  0  0  0
   -4.8628    3.3859   -2.8888 C   0  0  0  0  0  0  0  0  0  0  0  0
   -3.6510    2.6976   -2.2564 C   0  0  0  0  0  0  0  0  0  0  0  0
   -3.7707    2.1562   -0.8293 C   0  0  0  0  0  0  0  0  0  0  0  0
   -4.8779    1.1215   -0.6199 C   0  0  0  0  0  0  0  0  0  0  0  0
   -4.7514   -0.1300   -1.4930 C   0  0  0  0  0  0  0  0  0  0  0  0
   -3.4211   -0.8765   -1.3669 C   0  0  0  0  0  0  0  0  0  0  0  0
   -3.0685   -1.3356    0.0493 C   0  0  0  0  0  0  0  0  0  0  0  0
   -4.0951   -2.2633    0.7025 C   0  0  0  0  0  0  0  0  0  0  0  0
   -4.3700   -3.5603   -0.0603 C   0  0  0  0  0  0  0  0  0  0  0  0
   -3.1385   -4.4462   -0.2050 C   0  0  0  0  0  0  0  0  0  0  0  0
   -6.0880    4.5966   -1.1862 C   0  0  0  0  0  0  0  0  0  0  0  0
   -4.0732    5.5673   -1.9878 C   0  0  0  0  0  0  0  0  0  0  0  0
    0.9865    0.6103   -1.5587 H   0  0  0  0  0  0  0  0  0  0  0  0
    0.1527   -0.0012   -0.1322 H   0  0  0  0  0  0  0  0  0  0  0  0
    1.8212    0.5528   -0.0068 H   0  0  0  0  0  0  0  0  0  0  0  0
   -0.5695    2.3327   -0.6741 H   0  0  0  0  0  0  0  0  0  0  0  0
    0.1716    2.2039    0.9174 H   0  0  0  0  0  0  0  0  0  0  0  0
    0.9898    4.2013   -0.1633 H   0  0  0  0  0  0  0  0  0  0  0  0
    2.3035    3.0554    0.0481 H   0  0  0  0  0  0  0  0  0  0  0  0
    2.4294    4.1771   -2.1200 H   0  0  0  0  0  0  0  0  0  0  0  0
    2.2770    2.4386   -2.2908 H   0  0  0  0  0  0  0  0  0  0  0  0
    0.9332    3.5790   -3.9589 H   0  0  0  0  0  0  0  0  0  0  0  0
   -0.0768    2.6223   -2.8889 H   0  0  0  0  0  0  0  0  0  0  0  0
   -1.2004    4.6848   -3.3065 H   0  0  0  0  0  0  0  0  0  0  0  0
   -0.6822    4.6853   -1.6205 H   0  0  0  0  0  0  0  0  0  0  0  0
   -0.3252    6.8740   -2.5228 H   0  0  0  0  0  0  0  0  0  0  0  0
    1.2360    6.1450   -2.2041 H   0  0  0  0  0  0  0  0  0  0  0  0
    1.1704    7.4105   -4.3241 H   0  0  0  0  0  0  0  0  0  0  0  0
    1.6493    5.7338   -4.5399 H   0  0  0  0  0  0  0  0  0  0  0  0
    0.1569    6.4454   -6.3254 H   0  0  0  0  0  0  0  0  0  0  0  0
   -0.5563    5.1415   -5.3902 H   0  0  0  0  0  0  0  0  0  0  0  0
   -1.9242    6.8754   -4.1358 H   0  0  0  0  0  0  0  0  0  0  0  0
   -1.2024    8.1152   -5.1525 H   0  0  0  0  0  0  0  0  0  0  0  0
   -3.3455    7.6423   -6.0777 H   0  0  0  0  0  0  0  0  0  0  0  0
   -2.1680    6.9125   -7.1731 H   0  0  0  0  0  0  0  0  0  0  0  0
   -3.9490    5.3010   -6.8980 H   0  0  0  0  0  0  0  0  0  0  0  0
   -2.5379    4.6941   -6.0218 H   0  0  0  0  0  0  0  0  0  0  0  0
   -5.4335    6.7471   -6.5847 H   0  0  0  0  0  0  0  0  0  0  0  0
   -7.7336    7.4735   -6.2743 H   0  0  0  0  0  0  0  0  0  0  0  0
   -8.9279    6.9332   -4.1689 H   0  0  0  0  0  0  0  0  0  0  0  0
   -7.8144    5.7071   -2.4257 H   0  0  0  0  0  0  0  0  0  0  0  0
   -5.7465    2.7543   -2.7920 H   0  0  0  0  0  0  0  0  0  0  0  0
   -4.6372    3.4884   -3.9488 H   0  0  0  0  0  0  0  0  0  0  0  0
   -3.4424    1.8476   -2.9088 H   0  0  0  0  0  0  0  0  0  0  0  0
   -2.7799    3.3489   -2.3173 H   0  0  0  0  0  0  0  0  0  0  0  0
   -2.8167    1.6846   -0.5906 H   0  0  0  0  0  0  0  0  0  0  0  0
   -3.8918    2.9662   -0.1051 H   0  0  0  0  0  0  0  0  0  0  0  0
   -4.8592    0.8221    0.4286 H   0  0  0  0  0  0  0  0  0  0  0  0
   -5.8587    1.5691   -0.8022 H   0  0  0  0  0  0  0  0  0  0  0  0
   -5.5633   -0.8067   -1.2239 H   0  0  0  0  0  0  0  0  0  0  0  0
   -4.8984    0.1367   -2.5431 H   0  0  0  0  0  0  0  0  0  0  0  0
   -3.4645   -1.7478   -2.0218 H   0  0  0  0  0  0  0  0  0  0  0  0
   -2.6076   -0.2466   -1.7358 H   0  0  0  0  0  0  0  0  0  0  0  0
   -2.1059   -1.8478    0.0067 H   0  0  0  0  0  0  0  0  0  0  0  0
   -2.9351   -0.4639    0.6948 H   0  0  0  0  0  0  0  0  0  0  0  0
   -3.7278   -2.5193    1.6992 H   0  0  0  0  0  0  0  0  0  0  0  0
   -5.0385   -1.7287    0.8350 H   0  0  0  0  0  0  0  0  0  0  0  0
   -5.1384   -4.1136    0.4845 H   0  0  0  0  0  0  0  0  0  0  0  0
   -4.7749   -3.3347   -1.0488 H   0  0  0  0  0  0  0  0  0  0  0  0
   -2.6988   -4.6480    0.7690 H   0  0  0  0  0  0  0  0  0  0  0  0
   -3.4109   -5.3956   -0.6596 H   0  0  0  0  0  0  0  0  0  0  0  0
   -2.3853   -3.9768   -0.8330 H   0  0  0  0  0  0  0  0  0  0  0  0
   -5.5285    4.0540   -0.4294 H   0  0  0  0  0  0  0  0  0  0  0  0
   -6.3621    5.5700   -0.7832 H   0  0  0  0  0  0  0  0  0  0  0  0
   -6.9866    4.0291   -1.4184 H   0  0  0  0  0  0  0  0  0  0  0  0
   -3.3589    5.6147   -2.8050 H   0  0  0  0  0  0  0  0  0  0  0  0
   -4.4085    6.5763   -1.7512 H   0  0  0  0  0  0  0  0  0  0  0  0
   -3.5936    5.1386   -1.1118 H   0  0  0  0  0  0  0  0  0  0  0  0
  1  2  1  0  0  0  0
  2  3  1  0  0  0  0
  3  4  1  0  0  0  0
  4  5  1  0  0  0  0
  5  6  1  0  0  0  0
  6  7  1  0  0  0  0
  7  8  1  0  0  0  0
  8  9  1  0  0  0  0
  9 10  1  0  0  0  0
 10 11  1  0  0  0  0
 11 12  1  0  0  0  0
 12 13  1  0  0  0  0
 13 14  1  0  0  0  0
 14 15  4  0  0  0  0
 15 16  4  0  0  0  0
 16 17  4  0  0  0  0
 17 18  4  0  0  0  0
 14 19  4  0  0  0  0
 18 19  4  0  0  0  0
 19 20  1  0  0  0  0
 20 21  1  0  0  0  0
 21 22  1  0  0  0  0
 22 23  1  0  0  0  0
 23 24  1  0  0  0  0
 24 25  1  0  0  0  0
 25 26  1  0  0  0  0
 26 27  1  0  0  0  0
 27 28  1  0  0  0  0
 28 29  1  0  0  0  0
 29 30  1  0  0  0  0
 20 31  1  0  0  0  0
 20 32  1  0  0  0  0
  1 33  1  0  0  0  0
  1 34  1  0  0  0  0
  1 35  1  0  0  0  0
  2 36  1  0  0  0  0
  2 37  1  0  0  0  0
  3 38  1  0  0  0  0
  3 39  1  0  0  0  0
  4 40  1  0  0  0  0
  4 41  1  0  0  0  0
  5 42  1  0  0  0  0
  5 43  1  0  0  0  0
  6 44  1  0  0  0  0
  6 45  1  0  0  0  0
  7 46  1  0  0  0  0
  7 47  1  0  0  0  0
  8 48  1  0  0  0  0
  8 49  1  0  0  0  0
  9 50  1  0  0  0  0
  9 51  1  0  0  0  0
 10 52  1  0  0  0  0
 10 53  1  0  0  0  0
 11 54  1  0  0  0  0
 11 55  1  0  0  0  0
 12 56  1  0  0  0  0
 12 57  1  0  0  0  0
 15 58  1  0  0  0  0
 16 59  1  0  0  0  0
 17 60  1  0  0  0  0
 18 61  1  0  0  0  0
 21 62  1  0  0  0  0
 21 63  1  0  0  0  0
 22 64  1  0  0  0  0
 22 65  1  0  0  0  0
 23 66  1  0  0  0  0
 23 67  1  0  0  0  0
 24 68  1  0  0  0  0
 24 69  1  0  0  0  0
 25 70  1  0  0  0  0
 25 71  1  0  0  0  0
 26 72  1  0  0  0  0
 26 73  1  0  0  0  0
 27 74  1  0  0  0  0
 27 75  1  0  0  0  0
 28 76  1  0  0  0  0
 28 77  1  0  0  0  0
 29 78  1  0  0  0  0
 29 79  1  0  0  0  0
 30 80  1  0  0  0  0
 30 81  1  0  0  0  0
 30 82  1  0  0  0  0
 31 83  1  0  0  0  0
 31 84  1  0  0  0  0
 31 85  1  0  0  0  0
 32 86  1  0  0  0  0
 32 87  1  0  0  0  0
 32 88  1  0  0  0  0
M  CHG  1   1   1
M  END
