36

C          0.78765       -0.19315       -0.56227
N          0.37771        1.19396       -0.57734
N         -0.95722        1.48829       -0.68509
C         -0.98391        2.77153       -0.64229
N          0.26429        3.33726       -0.50244
C          1.11887        2.30469       -0.48571
C          0.59121        4.75181       -0.40171
C          0.50791        5.26216        1.03600
C          1.50395        4.61553        2.00610
C          2.98311        4.82415        1.66412
C          3.45797        6.28047        1.68274
C          3.35329        6.98687        3.03892
C          4.11035        6.31962        4.19085
C          5.60578        6.19251        3.94273
H          0.42333       -0.69070       -1.46470
H          0.37554       -0.67982        0.32573
H          1.87886       -0.25103       -0.53242
H         -1.85679        3.40620       -0.69657
H          2.19694        2.35182       -0.39853
H          1.58454        4.91374       -0.83198
H         -0.11853        5.30541       -1.02802
H          0.64223        6.34946        1.03754
H         -0.50420        5.07716        1.41724
H          1.30466        4.99528        3.01492
H          1.30863        3.53768        2.05538
H          3.58755        4.23421        2.36278
H          3.19493        4.40472        0.67447
H          4.50009        6.30908        1.34259
H          2.89418        6.86036        0.94271
H          3.72695        8.01195        2.92076
H          2.29845        7.08296        3.32157
H          3.95822        6.91952        5.09631
H          3.68932        5.33091        4.40325
H          6.04936        7.16541        3.70877
H          6.10313        5.79925        4.83518
H          5.81925        5.50700        3.11731
