35

C          0.77712        0.14920       -0.57683
C          0.36811       -1.31551       -0.52351
C          1.13739       -2.15790        0.49869
N          0.61426       -2.12451        1.95291
C         -0.92451       -2.36827        2.06208
C         -1.46398       -3.61912        1.35843
C         -1.61208       -4.83932        2.25801
C          1.33627       -3.22004        2.78301
C          2.86834       -3.15974        2.84587
C          3.46802       -2.10626        3.76302
C          0.86457       -0.75128        2.58689
H          0.42437        0.70942        0.29006
H          0.34393        0.62310       -1.46406
H          1.86484        0.25412       -0.64114
H         -0.71566       -1.39873       -0.41345
H          0.59420       -1.73720       -1.51201
H          1.11990       -3.20858        0.18915
H          2.18617       -1.84396        0.52191
H         -1.17110       -2.37024        3.13081
H         -1.40563       -1.48562        1.62559
H         -2.47598       -3.37266        1.00949
H         -0.90076       -3.88431        0.46120
H         -2.12613       -4.58581        3.19010
H         -2.20650       -5.60444        1.74673
H         -0.65197       -5.29410        2.50671
H          0.90209       -3.20788        3.78924
H          1.07925       -4.16831        2.30564
H          3.19394       -4.13222        3.24047
H          3.31756       -3.08999        1.85139
H          2.91819       -2.03227        4.70564
H          4.50487       -2.36973        3.99962
H          3.49990       -1.12291        3.29081
H          1.83629       -0.37881        2.26022
H          0.08372       -0.05914        2.26279
H          0.81678       -0.85386        3.67457
