89

C          1.40332        1.13309        0.05978
C          1.53850        0.56094       -1.34325
C          1.77145       -0.95224       -1.36519
C          0.66799       -1.79691       -0.71917
C         -0.72478       -1.63575       -1.33756
C         -0.83760       -2.05292       -2.80844
C         -0.48727       -3.51676       -3.10227
C         -1.30541       -4.55375       -2.32323
C         -2.81799       -4.50841       -2.57043
C         -3.25033       -4.81403       -4.00907
C         -2.86007       -6.20490       -4.52132
C         -3.46651       -7.37708       -3.74016
C         -4.99755       -7.47099       -3.78554
C         -5.61132       -7.56369       -5.18918
C         -5.07174       -8.70396       -6.05878
C         -5.43701      -10.11098       -5.57220
C         -6.90419      -10.52566       -5.76798
C         -7.46512      -10.47338       -7.19527
N         -7.19008      -11.70424       -8.08757
C         -7.79223      -13.02081       -7.54827
C         -9.30186      -13.03965       -7.27843
C        -10.25008      -13.20468       -8.47387
C         -9.93427      -14.35834       -9.43130
C        -10.03091      -15.75768       -8.81728
C        -11.43831      -16.18422       -8.38572
C        -12.50450      -16.15709       -9.48539
C        -12.16371      -17.02334      -10.68876
C         -7.72224      -11.37306       -9.48730
C         -5.68466      -11.94283       -8.26390
H          0.49946        0.76863        0.55678
H          1.33858        2.22499        0.01644
H          2.26829        0.86926        0.67655
H          0.65184        0.82047       -1.93169
H          2.38872        1.04757       -1.83635
H          1.91680       -1.27029       -2.40418
H          2.71560       -1.16944       -0.84968
H          0.96836       -2.85048       -0.75899
H          0.60454       -1.55383        0.34808
H         -1.43878       -2.21415       -0.73966
H         -1.04891       -0.59281       -1.24456
H         -1.86003       -1.85046       -3.14890
H         -0.19357       -1.41051       -3.42051
H         -0.60103       -3.69334       -4.17833
H          0.57568       -3.68301       -2.89070
H         -0.92249       -5.55225       -2.56319
H         -1.12473       -4.42761       -1.24950
H         -3.30369       -5.21425       -1.88686
H         -3.20597       -3.52192       -2.29184
H         -4.33742       -4.69160       -4.08018
H         -2.82587       -4.06200       -4.68442
H         -3.14522       -6.27935       -5.57703
H         -1.76875       -6.30596       -4.51081
H         -3.03585       -8.30989       -4.12286
H         -3.14999       -7.32626       -2.69208
H         -5.30801       -8.34186       -3.19629
H         -5.42963       -6.60236       -3.27438
H         -6.69960       -7.65296       -5.09345
H         -5.43836       -6.61681       -5.71460
H         -5.41597       -8.55453       -7.08645
H         -3.98013       -8.63263       -6.11925
H         -4.77510      -10.82206       -6.06962
H         -5.19530      -10.20452       -4.50699
H         -7.05342      -11.51540       -5.32609
H         -7.51562       -9.84750       -5.15859
H         -8.55434      -10.36869       -7.14864
H         -7.09876       -9.60005       -7.74225
H         -7.49774      -13.81470       -8.24183
H         -7.27160      -13.22811       -6.60632
H         -9.48800      -13.88888       -6.60692
H         -9.60758      -12.16182       -6.70123
H        -11.26832      -13.32869       -8.08474
H        -10.28784      -12.27718       -9.04959
H        -10.60736      -14.28766      -10.29318
H         -8.92943      -14.23235       -9.84684
H         -9.64645      -16.48208       -9.54533
H         -9.36174      -15.82954       -7.95198
H        -11.37748      -17.20315       -7.98262
H        -11.77470      -15.55180       -7.55591
H        -13.44988      -16.51206       -9.05755
H        -12.68520      -15.12823       -9.81548
H        -11.95736      -18.05446      -10.38531
H        -13.00296      -17.03797      -11.39155
H        -11.29155      -16.63955      -11.22641
H         -7.08318      -10.59750       -9.92300
H         -7.68655      -12.27509      -10.10155
H         -8.73663      -10.98260       -9.39824
H         -5.20264      -10.98765       -8.49102
H         -5.28835      -12.38686       -7.34833
H         -5.54125      -12.64587       -9.09058
