 xtb: 6.7.1 (edcfbbe)
          12202402123D

 44 46  0     0  0            999 V2000
    1.5012    0.3797    0.7638 C   0  0  0  0  0  0  0  0  0  0  0  0
    0.9431   -0.6876   -0.1843 C   0  0  0  0  0  0  0  0  0  0  0  0
    1.3369   -2.1224    0.1688 C   0  0  0  0  0  0  0  0  0  0  0  0
    0.6745   -2.6612    1.4328 C   0  0  0  0  0  0  0  0  0  0  0  0
    0.8227    0.4051    2.0408 N   0  0  0  0  0  0  0  0  0  0  0  0
   -0.4783    0.5987    2.2217 C   0  0  0  0  0  0  0  0  0  0  0  0
   -0.7587    0.5314    3.5209 N   0  0  0  0  0  0  0  0  0  0  0  0
    0.3981    0.2813    4.1909 C   0  0  0  0  0  0  0  0  0  0  0  0
    1.3917    0.2098    3.2618 C   0  0  0  0  0  0  0  0  0  0  0  0
   -2.0966    0.5373    4.0619 C   0  0  0  0  0  0  0  0  0  0  0  0
   -2.8359   -0.6474    3.5139 C   0  0  0  0  0  0  0  0  0  0  0  0
   -2.4021   -1.2807    2.4022 N   0  0  0  0  0  0  0  0  0  0  0  0
   -3.1964   -2.2517    2.1383 N   0  0  0  0  0  0  0  0  0  0  0  0
   -4.1541   -2.2801    3.0397 N   0  0  0  0  0  0  0  0  0  0  0  0
   -3.9788   -1.2907    3.9409 C   0  0  0  0  0  0  0  0  0  0  0  0
   -5.2072   -3.2659    3.0071 C   0  0  0  0  0  0  0  0  0  0  0  0
   -5.4357   -3.8408    4.3821 C   0  0  0  0  0  0  0  0  0  0  0  0
   -4.4240   -4.5644    5.0030 C   0  0  0  0  0  0  0  0  0  0  0  0
   -4.6121   -5.0740    6.2751 C   0  0  0  0  0  0  0  0  0  0  0  0
   -5.8124   -4.8665    6.9353 C   0  0  0  0  0  0  0  0  0  0  0  0
   -6.8235   -4.1484    6.3205 C   0  0  0  0  0  0  0  0  0  0  0  0
   -6.6346   -3.6329    5.0492 C   0  0  0  0  0  0  0  0  0  0  0  0
    1.3961    1.3654    0.3008 H   0  0  0  0  0  0  0  0  0  0  0  0
    2.5608    0.1960    0.9498 H   0  0  0  0  0  0  0  0  0  0  0  0
   -0.1443   -0.6143   -0.2238 H   0  0  0  0  0  0  0  0  0  0  0  0
    1.3281   -0.4589   -1.1790 H   0  0  0  0  0  0  0  0  0  0  0  0
    1.0409   -2.7537   -0.6697 H   0  0  0  0  0  0  0  0  0  0  0  0
    2.4226   -2.1927    0.2601 H   0  0  0  0  0  0  0  0  0  0  0  0
   -0.3949   -2.4611    1.4250 H   0  0  0  0  0  0  0  0  0  0  0  0
    0.8174   -3.7370    1.4865 H   0  0  0  0  0  0  0  0  0  0  0  0
    1.1073   -2.2302    2.3327 H   0  0  0  0  0  0  0  0  0  0  0  0
   -1.1990    0.7749    1.4490 H   0  0  0  0  0  0  0  0  0  0  0  0
    0.4404    0.1748    5.2555 H   0  0  0  0  0  0  0  0  0  0  0  0
    2.4404    0.0347    3.3905 H   0  0  0  0  0  0  0  0  0  0  0  0
   -2.0486    0.4928    5.1517 H   0  0  0  0  0  0  0  0  0  0  0  0
   -2.6034    1.4652    3.7724 H   0  0  0  0  0  0  0  0  0  0  0  0
   -4.6352   -1.1293    4.7684 H   0  0  0  0  0  0  0  0  0  0  0  0
   -6.1227   -2.7980    2.6307 H   0  0  0  0  0  0  0  0  0  0  0  0
   -4.8886   -4.0344    2.2978 H   0  0  0  0  0  0  0  0  0  0  0  0
   -3.4906   -4.7319    4.4839 H   0  0  0  0  0  0  0  0  0  0  0  0
   -3.8236   -5.6381    6.7494 H   0  0  0  0  0  0  0  0  0  0  0  0
   -5.9601   -5.2677    7.9260 H   0  0  0  0  0  0  0  0  0  0  0  0
   -7.7614   -3.9879    6.8294 H   0  0  0  0  0  0  0  0  0  0  0  0
   -7.4267   -3.0742    4.5715 H   0  0  0  0  0  0  0  0  0  0  0  0
  1  2  1  0  0  0  0
  2  3  1  0  0  0  0
  3  4  1  0  0  0  0
  1  5  1  0  0  0  0
  5  6  4  0  0  0  0
  6  7  4  0  0  0  0
  7  8  4  0  0  0  0
  5  9  4  0  0  0  0
  8  9  2  0  0  0  0
  7 10  1  0  0  0  0
 10 11  1  0  0  0  0
 11 12  4  0  0  0  0
 12 13  4  0  0  0  0
 13 14  4  0  0  0  0
 11 15  4  0  0  0  0
 14 15  4  0  0  0  0
 14 16  1  0  0  0  0
 16 17  1  0  0  0  0
 17 18  4  0  0  0  0
 18 19  4  0  0  0  0
 19 20  4  0  0  0  0
 20 21  4  0  0  0  0
 17 22  4  0  0  0  0
 21 22  4  0  0  0  0
  1 23  1  0  0  0  0
  1 24  1  0  0  0  0
  2 25  1  0  0  0  0
  2 26  1  0  0  0  0
  3 27  1  0  0  0  0
  3 28  1  0  0  0  0
  4 29  1  0  0  0  0
  4 30  1  0  0  0  0
  4 31  1  0  0  0  0
  6 32  1  0  0  0  0
  8 33  1  0  0  0  0
  9 34  1  0  0  0  0
 10 35  1  0  0  0  0
 10 36  1  0  0  0  0
 15 37  1  0  0  0  0
 16 38  1  0  0  0  0
 16 39  1  0  0  0  0
 18 40  1  0  0  0  0
 19 41  1  0  0  0  0
 20 42  1  0  0  0  0
 21 43  1  0  0  0  0
 22 44  1  0  0  0  0
M  CHG  1   1   1
M  END
