67

C          1.46141        0.74566        0.56821
C          1.16009        0.96546       -0.90598
C          1.44095       -0.26128       -1.77799
C          0.64492       -1.52335       -1.42626
C         -0.87970       -1.36741       -1.41564
C         -1.50247       -0.84822       -2.71620
C         -1.32406       -1.75682       -3.93980
C         -2.10985       -3.07581       -3.90744
N         -3.49261       -3.03682       -4.57576
C         -3.45682       -2.63151       -6.04570
O         -2.89718       -3.56663       -6.94374
C         -1.52720       -3.42436       -7.31131
C         -1.25208       -2.10507       -8.05245
C          0.22754       -1.97235       -8.42493
C          0.49077       -0.65562       -9.15211
C          0.67349       -3.16141       -9.27405
C          0.37184       -4.49317       -8.58973
C         -1.11576       -4.63819       -8.20632
C         -1.45891       -6.01517       -7.53896
C         -2.90732       -6.44234       -7.83670
C         -0.54940       -7.17199       -7.97596
C         -4.08278       -4.44920       -4.50079
C         -4.43739       -2.09889       -3.83996
H          0.79015        0.00275        1.00874
H          1.32894        1.68084        1.12185
H          2.49304        0.40993        0.71265
H          0.11968        1.28784       -1.02164
H          1.78103        1.79415       -1.26769
H          1.25747        0.00484       -2.82575
H          2.50989       -0.50156       -1.71389
H          0.92539       -2.31706       -2.12869
H          0.96086       -1.88331       -0.43955
H         -1.32552       -2.33321       -1.15260
H         -1.16164       -0.68421       -0.60538
H         -2.56443       -0.66434       -2.53298
H         -1.07464        0.13305       -2.95262
H         -1.55327       -1.17125       -4.83244
H         -0.26004       -2.00374       -4.03424
H         -1.54114       -3.85578       -4.42344
H         -2.26355       -3.42563       -2.88085
H         -4.50827       -2.53701       -6.34599
H         -3.04023       -1.62870       -6.12948
H         -0.91501       -3.45220       -6.40504
H         -1.52989       -1.24479       -7.43628
H         -1.88790       -2.04705       -8.94565
H          0.81796       -1.96567       -7.49855
H          0.20162        0.19646       -8.52776
H          1.55474       -0.54990       -9.38893
H         -0.07349       -0.59687      -10.08873
H          0.16971       -3.13578      -10.24880
H          1.75000       -3.09553       -9.47289
H          0.99641       -4.59004       -7.69270
H          0.66978       -5.28849       -9.28152
H         -1.70006       -4.57991       -9.13625
H         -1.34980       -5.91415       -6.45161
H         -3.06537       -6.56750       -8.91381
H         -3.13531       -7.39918       -7.35372
H         -3.64430       -5.72411       -7.47453
H          0.48610       -7.00699       -7.66301
H         -0.87057       -8.11392       -7.51695
H         -0.57177       -7.30768       -9.06268
H         -4.21577       -4.70932       -3.44620
H         -5.04747       -4.45641       -5.01748
H         -3.38802       -5.14944       -4.97260
H         -4.39795       -2.33039       -2.77147
H         -4.13069       -1.06841       -4.03357
H         -5.45267       -2.25445       -4.21903
