 xtb: 6.7.1 (edcfbbe)
          12202402113D

 74 73  0     0  0            999 V2000
    0.6406    0.6047    0.7961 C   0  0  0  0  0  0  0  0  0  0  0  0
    0.7818    1.0155   -0.6644 C   0  0  0  0  0  0  0  0  0  0  0  0
    1.3624   -0.0899   -1.5478 C   0  0  0  0  0  0  0  0  0  0  0  0
    0.5011   -1.3502   -1.6568 C   0  0  0  0  0  0  0  0  0  0  0  0
   -0.9052   -1.1302   -2.2190 C   0  0  0  0  0  0  0  0  0  0  0  0
   -0.9540   -0.4693   -3.5982 C   0  0  0  0  0  0  0  0  0  0  0  0
   -0.2038   -1.2251   -4.6967 C   0  0  0  0  0  0  0  0  0  0  0  0
   -0.7209   -2.6366   -4.9845 C   0  0  0  0  0  0  0  0  0  0  0  0
   -2.2068   -2.7325   -5.3603 C   0  0  0  0  0  0  0  0  0  0  0  0
   -2.7033   -1.7943   -6.4650 C   0  0  0  0  0  0  0  0  0  0  0  0
   -2.6062   -2.2682   -7.8822 N   0  0  0  0  0  0  0  0  0  0  0  0
   -3.5668   -3.3825   -8.1623 C   0  0  0  0  0  0  0  0  0  0  0  0
   -5.0625   -3.0513   -8.1857 C   0  0  0  0  0  0  0  0  0  0  0  0
   -5.6506   -2.5770   -9.5225 C   0  0  0  0  0  0  0  0  0  0  0  0
   -5.3407   -3.4637  -10.7307 C   0  0  0  0  0  0  0  0  0  0  0  0
   -5.7974   -4.9182  -10.6026 C   0  0  0  0  0  0  0  0  0  0  0  0
   -7.3072   -5.1021  -10.4321 C   0  0  0  0  0  0  0  0  0  0  0  0
   -8.1620   -4.4951  -11.5481 C   0  0  0  0  0  0  0  0  0  0  0  0
   -7.8244   -4.9778  -12.9602 C   0  0  0  0  0  0  0  0  0  0  0  0
   -7.9853   -6.4812  -13.1904 C   0  0  0  0  0  0  0  0  0  0  0  0
   -9.4333   -6.9568  -13.1004 C   0  0  0  0  0  0  0  0  0  0  0  0
  -10.2854   -6.4158  -14.2220 C   0  0  0  0  0  0  0  0  0  0  0  0
   -9.8848   -5.9184  -15.2385 O   0  0  0  0  0  0  0  0  0  0  0  0
  -11.5892   -6.5729  -13.9598 O   0  0  0  0  0  0  0  0  0  0  0  0
   -2.8699   -1.1139   -8.7605 C   0  0  0  0  0  0  0  0  0  0  0  0
   -1.2483   -2.7598   -8.1790 C   0  0  0  0  0  0  0  0  0  0  0  0
   -0.0941   -0.1877    0.9146 H   0  0  0  0  0  0  0  0  0  0  0  0
    0.3200    1.4534    1.3953 H   0  0  0  0  0  0  0  0  0  0  0  0
    1.5932    0.2528    1.1854 H   0  0  0  0  0  0  0  0  0  0  0  0
   -0.1894    1.3324   -1.0495 H   0  0  0  0  0  0  0  0  0  0  0  0
    1.4497    1.8780   -0.7228 H   0  0  0  0  0  0  0  0  0  0  0  0
    1.5433    0.3170   -2.5455 H   0  0  0  0  0  0  0  0  0  0  0  0
    2.3329   -0.3832   -1.1406 H   0  0  0  0  0  0  0  0  0  0  0  0
    1.0330   -2.0758   -2.2769 H   0  0  0  0  0  0  0  0  0  0  0  0
    0.3997   -1.7969   -0.6668 H   0  0  0  0  0  0  0  0  0  0  0  0
   -1.4141   -2.0967   -2.2561 H   0  0  0  0  0  0  0  0  0  0  0  0
   -1.4699   -0.5025   -1.5283 H   0  0  0  0  0  0  0  0  0  0  0  0
   -2.0018   -0.3409   -3.8828 H   0  0  0  0  0  0  0  0  0  0  0  0
   -0.5214    0.5293   -3.5246 H   0  0  0  0  0  0  0  0  0  0  0  0
   -0.2189   -0.6209   -5.6093 H   0  0  0  0  0  0  0  0  0  0  0  0
    0.8436   -1.3136   -4.4082 H   0  0  0  0  0  0  0  0  0  0  0  0
   -0.0896   -3.0816   -5.7546 H   0  0  0  0  0  0  0  0  0  0  0  0
   -0.5859   -3.2418   -4.0878 H   0  0  0  0  0  0  0  0  0  0  0  0
   -2.4450   -3.7720   -5.5904 H   0  0  0  0  0  0  0  0  0  0  0  0
   -2.7833   -2.4787   -4.4695 H   0  0  0  0  0  0  0  0  0  0  0  0
   -3.7558   -1.5708   -6.2864 H   0  0  0  0  0  0  0  0  0  0  0  0
   -2.1502   -0.8569   -6.3980 H   0  0  0  0  0  0  0  0  0  0  0  0
   -3.2918   -3.8140   -9.1253 H   0  0  0  0  0  0  0  0  0  0  0  0
   -3.3904   -4.1402   -7.3976 H   0  0  0  0  0  0  0  0  0  0  0  0
   -5.5769   -3.9745   -7.9148 H   0  0  0  0  0  0  0  0  0  0  0  0
   -5.3157   -2.3243   -7.4127 H   0  0  0  0  0  0  0  0  0  0  0  0
   -6.7323   -2.5397   -9.3918 H   0  0  0  0  0  0  0  0  0  0  0  0
   -5.3338   -1.5598   -9.7547 H   0  0  0  0  0  0  0  0  0  0  0  0
   -5.8295   -3.0182  -11.5969 H   0  0  0  0  0  0  0  0  0  0  0  0
   -4.2678   -3.4527  -10.9460 H   0  0  0  0  0  0  0  0  0  0  0  0
   -5.4778   -5.4488  -11.5003 H   0  0  0  0  0  0  0  0  0  0  0  0
   -5.2938   -5.3939   -9.7568 H   0  0  0  0  0  0  0  0  0  0  0  0
   -7.5076   -6.1728  -10.3700 H   0  0  0  0  0  0  0  0  0  0  0  0
   -7.6255   -4.6663   -9.4820 H   0  0  0  0  0  0  0  0  0  0  0  0
   -9.2073   -4.7188  -11.3288 H   0  0  0  0  0  0  0  0  0  0  0  0
   -8.0656   -3.4073  -11.5287 H   0  0  0  0  0  0  0  0  0  0  0  0
   -8.4695   -4.4533  -13.6665 H   0  0  0  0  0  0  0  0  0  0  0  0
   -6.7965   -4.7015  -13.2029 H   0  0  0  0  0  0  0  0  0  0  0  0
   -7.6189   -6.7081  -14.1931 H   0  0  0  0  0  0  0  0  0  0  0  0
   -7.3800   -7.0415  -12.4766 H   0  0  0  0  0  0  0  0  0  0  0  0
   -9.4708   -8.0465  -13.1801 H   0  0  0  0  0  0  0  0  0  0  0  0
   -9.8994   -6.6880  -12.1526 H   0  0  0  0  0  0  0  0  0  0  0  0
  -12.1289   -6.2594  -14.7029 H   0  0  0  0  0  0  0  0  0  0  0  0
   -2.0615   -0.3892   -8.6744 H   0  0  0  0  0  0  0  0  0  0  0  0
   -2.9348   -1.4414   -9.7960 H   0  0  0  0  0  0  0  0  0  0  0  0
   -3.8006   -0.6274   -8.4803 H   0  0  0  0  0  0  0  0  0  0  0  0
   -0.5105   -2.0213   -7.8721 H   0  0  0  0  0  0  0  0  0  0  0  0
   -1.0581   -3.6934   -7.6557 H   0  0  0  0  0  0  0  0  0  0  0  0
   -1.1421   -2.9349   -9.2487 H   0  0  0  0  0  0  0  0  0  0  0  0
  1  2  1  0  0  0  0
  2  3  1  0  0  0  0
  3  4  1  0  0  0  0
  4  5  1  0  0  0  0
  5  6  1  0  0  0  0
  6  7  1  0  0  0  0
  7  8  1  0  0  0  0
  8  9  1  0  0  0  0
  9 10  1  0  0  0  0
 10 11  1  0  0  0  0
 11 12  1  0  0  0  0
 12 13  1  0  0  0  0
 13 14  1  0  0  0  0
 14 15  1  0  0  0  0
 15 16  1  0  0  0  0
 16 17  1  0  0  0  0
 17 18  1  0  0  0  0
 18 19  1  0  0  0  0
 19 20  1  0  0  0  0
 20 21  1  0  0  0  0
 21 22  1  0  0  0  0
 22 23  2  0  0  0  0
 22 24  1  0  0  0  0
 11 25  1  0  0  0  0
 11 26  1  0  0  0  0
  1 27  1  0  0  0  0
  1 28  1  0  0  0  0
  1 29  1  0  0  0  0
  2 30  1  0  0  0  0
  2 31  1  0  0  0  0
  3 32  1  0  0  0  0
  3 33  1  0  0  0  0
  4 34  1  0  0  0  0
  4 35  1  0  0  0  0
  5 36  1  0  0  0  0
  5 37  1  0  0  0  0
  6 38  1  0  0  0  0
  6 39  1  0  0  0  0
  7 40  1  0  0  0  0
  7 41  1  0  0  0  0
  8 42  1  0  0  0  0
  8 43  1  0  0  0  0
  9 44  1  0  0  0  0
  9 45  1  0  0  0  0
 10 46  1  0  0  0  0
 10 47  1  0  0  0  0
 12 48  1  0  0  0  0
 12 49  1  0  0  0  0
 13 50  1  0  0  0  0
 13 51  1  0  0  0  0
 14 52  1  0  0  0  0
 14 53  1  0  0  0  0
 15 54  1  0  0  0  0
 15 55  1  0  0  0  0
 16 56  1  0  0  0  0
 16 57  1  0  0  0  0
 17 58  1  0  0  0  0
 17 59  1  0  0  0  0
 18 60  1  0  0  0  0
 18 61  1  0  0  0  0
 19 62  1  0  0  0  0
 19 63  1  0  0  0  0
 20 64  1  0  0  0  0
 20 65  1  0  0  0  0
 21 66  1  0  0  0  0
 21 67  1  0  0  0  0
 24 68  1  0  0  0  0
 25 69  1  0  0  0  0
 25 70  1  0  0  0  0
 25 71  1  0  0  0  0
 26 72  1  0  0  0  0
 26 73  1  0  0  0  0
 26 74  1  0  0  0  0
M  CHG  1   1   1
M  END
