20

C          1.50431        0.30771        0.55616
C          0.35390       -0.54225        1.02168
O         -0.81245       -0.16760        0.89699
C          0.66580       -1.91997        1.53227
N          0.33396       -3.06101        0.64666
C          0.81248       -4.28410        0.98937
C          0.54219       -5.40420        0.21274
C         -0.23406       -5.27006       -0.92830
C         -0.73484       -4.02055       -1.26258
C         -0.44720       -2.92475       -0.45445
H          1.15900        1.33172        0.38889
H          1.89907       -0.09853       -0.37826
H          2.28618        0.32741        1.31913
H          1.73747       -1.98732        1.75270
H          0.11441       -2.07890        2.46624
H          1.41069       -4.35749        1.89421
H          0.93157       -6.37957        0.49786
H         -0.45661       -6.13649       -1.54995
H         -1.35594       -3.89813       -2.14814
H         -0.85234       -1.94804       -0.70253
