 xtb: 6.7.1 (edcfbbe)
          12202402123D

 30 30  0     0  0            999 V2000
    1.1840   -0.1390    0.3229 C   0  0  0  0  0  0  0  0  0  0  0  0
    0.8156    0.5438   -0.9886 C   0  0  0  0  0  0  0  0  0  0  0  0
    1.0730   -0.3301   -2.2194 C   0  0  0  0  0  0  0  0  0  0  0  0
    0.2498   -1.6168   -2.2783 C   0  0  0  0  0  0  0  0  0  0  0  0
   -1.2601   -1.3906   -2.4457 C   0  0  0  0  0  0  0  0  0  0  0  0
   -1.5489   -0.7925   -3.7368 N   0  0  0  0  0  0  0  0  0  0  0  0
   -1.6564   -1.5756   -4.8140 C   0  0  0  0  0  0  0  0  0  0  0  0
   -1.8577   -1.0297   -6.0658 C   0  0  0  0  0  0  0  0  0  0  0  0
   -1.9398    0.3461   -6.2036 C   0  0  0  0  0  0  0  0  0  0  0  0
   -1.8219    1.1620   -5.0757 C   0  0  0  0  0  0  0  0  0  0  0  0
   -1.6260    0.5369   -3.8527 C   0  0  0  0  0  0  0  0  0  0  0  0
   -1.9004    2.6432   -5.1782 C   0  0  0  0  0  0  0  0  0  0  0  0
    0.5219   -0.9724    0.5418 H   0  0  0  0  0  0  0  0  0  0  0  0
    1.1084    0.5689    1.1437 H   0  0  0  0  0  0  0  0  0  0  0  0
    2.2054   -0.5072    0.2863 H   0  0  0  0  0  0  0  0  0  0  0  0
   -0.2290    0.8605   -0.9446 H   0  0  0  0  0  0  0  0  0  0  0  0
    1.4189    1.4466   -1.0940 H   0  0  0  0  0  0  0  0  0  0  0  0
    0.9061    0.2595   -3.1264 H   0  0  0  0  0  0  0  0  0  0  0  0
    2.1260   -0.6150   -2.2170 H   0  0  0  0  0  0  0  0  0  0  0  0
    0.6095   -2.2328   -3.1052 H   0  0  0  0  0  0  0  0  0  0  0  0
    0.3967   -2.1824   -1.3593 H   0  0  0  0  0  0  0  0  0  0  0  0
   -1.7808   -2.3475   -2.3777 H   0  0  0  0  0  0  0  0  0  0  0  0
   -1.6289   -0.7353   -1.6564 H   0  0  0  0  0  0  0  0  0  0  0  0
   -1.5848   -2.6420   -4.6631 H   0  0  0  0  0  0  0  0  0  0  0  0
   -1.9488   -1.6787   -6.9215 H   0  0  0  0  0  0  0  0  0  0  0  0
   -2.0960    0.7904   -7.1746 H   0  0  0  0  0  0  0  0  0  0  0  0
   -1.5385    1.1165   -2.9456 H   0  0  0  0  0  0  0  0  0  0  0  0
   -1.0932    3.0174   -5.8064 H   0  0  0  0  0  0  0  0  0  0  0  0
   -2.8359    2.9390   -5.6493 H   0  0  0  0  0  0  0  0  0  0  0  0
   -1.8320    3.1168   -4.2039 H   0  0  0  0  0  0  0  0  0  0  0  0
  1  2  1  0  0  0  0
  2  3  1  0  0  0  0
  3  4  1  0  0  0  0
  4  5  1  0  0  0  0
  5  6  1  0  0  0  0
  6  7  4  0  0  0  0
  7  8  4  0  0  0  0
  8  9  4  0  0  0  0
  9 10  4  0  0  0  0
  6 11  4  0  0  0  0
 10 11  4  0  0  0  0
 10 12  1  0  0  0  0
  1 13  1  0  0  0  0
  1 14  1  0  0  0  0
  1 15  1  0  0  0  0
  2 16  1  0  0  0  0
  2 17  1  0  0  0  0
  3 18  1  0  0  0  0
  3 19  1  0  0  0  0
  4 20  1  0  0  0  0
  4 21  1  0  0  0  0
  5 22  1  0  0  0  0
  5 23  1  0  0  0  0
  7 24  1  0  0  0  0
  8 25  1  0  0  0  0
  9 26  1  0  0  0  0
 11 27  1  0  0  0  0
 12 28  1  0  0  0  0
 12 29  1  0  0  0  0
 12 30  1  0  0  0  0
M  CHG  1   1   1
M  END
