77

C         -0.64365        1.47862       -0.21398
C         -0.88708        0.02235       -0.58631
C         -0.01148       -0.95012        0.20728
C         -0.40335       -1.11698        1.67863
C         -1.64507       -1.97646        1.92665
C         -1.48161       -3.48341        1.69635
P         -0.77528       -4.47968        2.98365
C         -1.60867       -4.09722        4.53431
C         -3.13036       -3.95727        4.58166
C         -3.96002       -5.23833        4.47609
C         -3.62493       -6.34266        5.48480
C         -3.78150       -5.96059        6.95809
C         -5.21563       -5.64162        7.34955
C         -1.00790       -6.22479        2.69817
C         -1.09971       -6.77137        1.27371
C          0.19893       -7.26522        0.63181
C          0.97024       -8.34453        1.40351
C          0.24147       -9.67975        1.56617
C          0.13835      -10.46065        0.26530
C          0.94030       -4.13936        3.33774
C          2.04318       -4.71383        2.45768
C          2.16083       -4.09400        1.06526
C          2.98525       -2.80437        1.02273
C          4.50141       -3.01993        1.04523
C          5.04060       -3.59710       -0.25704
H         -0.93700        1.68724        0.81845
H         -1.22657        2.13642       -0.86639
H          0.41313        1.74144       -0.33127
H         -1.94807       -0.21860       -0.46627
H         -0.65454       -0.09786       -1.65131
H         -0.01947       -1.92281       -0.29471
H          1.02396       -0.59069        0.16508
H          0.44305       -1.54136        2.21802
H         -0.56966       -0.13048        2.12615
H         -1.96609       -1.80210        2.95781
H         -2.45992       -1.61365        1.28969
H         -2.49378       -3.88214        1.54839
H         -0.96934       -3.66619        0.74958
H         -1.27224       -4.81340        5.29129
H         -1.19804       -3.13012        4.85241
H         -3.39280       -3.45829        5.52302
H         -3.46236       -3.28117        3.78771
H         -5.01829       -4.96870        4.58124
H         -3.87404       -5.63987        3.46090
H         -4.26731       -7.20693        5.27323
H         -2.59794       -6.68935        5.32796
H         -3.43713       -6.80408        7.56898
H         -3.13396       -5.11340        7.20768
H         -5.88490       -6.47016        7.09647
H         -5.28118       -5.47316        8.42930
H         -5.57692       -4.73861        6.84940
H         -0.28468       -6.78145        3.29949
H         -1.96882       -6.47385        3.14741
H         -1.80551       -7.61167        1.27749
H         -1.54787       -6.01794        0.61795
H         -0.03608       -7.64194       -0.37091
H          0.85716       -6.41119        0.46558
H          1.92405       -8.52049        0.89006
H          1.23765       -7.97632        2.39875
H          0.79891      -10.29070        2.28686
H         -0.75604       -9.53168        1.99223
H          1.13094      -10.64013       -0.16102
H         -0.32925      -11.43366        0.44667
H         -0.46558       -9.93080       -0.47633
H          1.08948       -3.06561        3.46852
H          1.11020       -4.56355        4.33666
H          2.99926       -4.61646        2.98460
H          1.87457       -5.78653        2.35760
H          2.60793       -4.83078        0.38960
H          1.16502       -3.89340        0.66705
H          2.73042       -2.25775        0.10701
H          2.70698       -2.15860        1.86237
H          4.98402       -2.04960        1.21214
H          4.79089       -3.66505        1.88122
H          4.75978       -2.97001       -1.10981
H          6.13346       -3.64715       -0.22230
H          4.66815       -4.60914       -0.43774
