 xtb: 6.7.1 (edcfbbe)
          12202402123D

 84 90  0     0  0            999 V2000
    3.1431    0.4642   -0.9808 C   0  0  0  0  0  0  0  0  0  0  0  0
    1.7835   -0.0646   -0.6637 C   0  0  0  0  0  0  0  0  0  0  0  0
    0.6493    0.6945   -0.9254 C   0  0  0  0  0  0  0  0  0  0  0  0
   -0.6210    0.2317   -0.6215 C   0  0  0  0  0  0  0  0  0  0  0  0
   -1.8393    1.0586   -0.9004 C   0  0  0  0  0  0  0  0  0  0  0  0
   -0.7317   -1.0311   -0.0387 C   0  0  0  0  0  0  0  0  0  0  0  0
    0.3821   -1.8218    0.2425 C   0  0  0  0  0  0  0  0  0  0  0  0
    1.6316   -1.3170   -0.0802 C   0  0  0  0  0  0  0  0  0  0  0  0
    0.2239   -3.1761    0.8629 C   0  0  0  0  0  0  0  0  0  0  0  0
   -2.0339   -1.5214    0.2847 N   0  0  0  0  0  0  0  0  0  0  0  0
   -2.6362   -1.4453    1.5037 C   0  0  0  0  0  0  0  0  0  0  0  0
   -3.8793   -1.9865    1.3722 C   0  0  0  0  0  0  0  0  0  0  0  0
   -4.0113   -2.3928    0.0798 N   0  0  0  0  0  0  0  0  0  0  0  0
   -2.8850   -2.0935   -0.5609 C   0  0  0  0  0  0  0  0  0  0  0  0
   -5.2077   -2.9182   -0.5233 C   0  0  0  0  0  0  0  0  0  0  0  0
   -6.0124   -1.8441   -1.2366 C   0  0  0  0  0  0  0  0  0  0  0  0
   -5.7208   -0.4988   -1.0743 C   0  0  0  0  0  0  0  0  0  0  0  0
   -6.5108    0.4865   -1.6554 C   0  0  0  0  0  0  0  0  0  0  0  0
   -7.4216    0.0857   -2.6241 C   0  0  0  0  0  0  0  0  0  0  0  0
   -7.7383   -1.2500   -2.7660 C   0  0  0  0  0  0  0  0  0  0  0  0
   -7.1393   -2.2226   -1.9718 C   0  0  0  0  0  0  0  0  0  0  0  0
   -7.8527   -3.5241   -1.7372 C   0  0  0  0  0  0  0  0  0  0  0  0
   -8.6502   -3.4781   -0.3815 C   0  0  0  0  0  0  0  0  0  0  0  0
   -8.7850   -2.0607    0.0999 C   0  0  0  0  0  0  0  0  0  0  0  0
   -7.9029   -1.5305    1.0367 C   0  0  0  0  0  0  0  0  0  0  0  0
   -7.6878   -0.1678    1.0927 C   0  0  0  0  0  0  0  0  0  0  0  0
   -8.3614    0.6958    0.2342 C   0  0  0  0  0  0  0  0  0  0  0  0
   -7.7683    2.0315   -0.1037 C   0  0  0  0  0  0  0  0  0  0  0  0
   -6.5472    1.8721   -1.0844 C   0  0  0  0  0  0  0  0  0  0  0  0
   -9.4752    0.1925   -0.4492 C   0  0  0  0  0  0  0  0  0  0  0  0
   -9.6620   -1.1812   -0.5185 C   0  0  0  0  0  0  0  0  0  0  0  0
  -10.6834    1.3684   -1.2134 P   0  0  0  0  0  0  0  0  0  0  0  0
  -10.9046    0.6139   -2.8779 C   0  0  0  0  0  0  0  0  0  0  0  0
  -10.3027    1.2856   -3.9384 C   0  0  0  0  0  0  0  0  0  0  0  0
  -10.3874    0.7936   -5.2281 C   0  0  0  0  0  0  0  0  0  0  0  0
  -11.0896   -0.3743   -5.4741 C   0  0  0  0  0  0  0  0  0  0  0  0
  -11.7232   -1.0294   -4.4306 C   0  0  0  0  0  0  0  0  0  0  0  0
  -11.6391   -0.5379   -3.1400 C   0  0  0  0  0  0  0  0  0  0  0  0
  -12.1981    0.7623   -0.3844 C   0  0  0  0  0  0  0  0  0  0  0  0
  -13.4228    0.9999   -1.0058 C   0  0  0  0  0  0  0  0  0  0  0  0
  -14.6038    0.6489   -0.3810 C   0  0  0  0  0  0  0  0  0  0  0  0
  -14.5777    0.0768    0.8811 C   0  0  0  0  0  0  0  0  0  0  0  0
  -13.3662   -0.1289    1.5187 C   0  0  0  0  0  0  0  0  0  0  0  0
  -12.1808    0.2201    0.8963 C   0  0  0  0  0  0  0  0  0  0  0  0
    3.1033    1.1821   -1.7955 H   0  0  0  0  0  0  0  0  0  0  0  0
    3.5526    0.9704   -0.1065 H   0  0  0  0  0  0  0  0  0  0  0  0
    3.8223   -0.3413   -1.2473 H   0  0  0  0  0  0  0  0  0  0  0  0
    0.7571    1.6695   -1.3755 H   0  0  0  0  0  0  0  0  0  0  0  0
   -1.5520    2.0345   -1.2792 H   0  0  0  0  0  0  0  0  0  0  0  0
   -2.4771    0.5816   -1.6450 H   0  0  0  0  0  0  0  0  0  0  0  0
   -2.4263    1.2047    0.0065 H   0  0  0  0  0  0  0  0  0  0  0  0
    2.5067   -1.9136    0.1273 H   0  0  0  0  0  0  0  0  0  0  0  0
   -0.2468   -3.1056    1.8431 H   0  0  0  0  0  0  0  0  0  0  0  0
   -0.3933   -3.8211    0.2374 H   0  0  0  0  0  0  0  0  0  0  0  0
    1.1932   -3.6491    0.9860 H   0  0  0  0  0  0  0  0  0  0  0  0
   -2.1488   -1.0158    2.3550 H   0  0  0  0  0  0  0  0  0  0  0  0
   -4.6619   -2.1030    2.0933 H   0  0  0  0  0  0  0  0  0  0  0  0
   -2.6890   -2.2833   -1.5980 H   0  0  0  0  0  0  0  0  0  0  0  0
   -4.9262   -3.6944   -1.2415 H   0  0  0  0  0  0  0  0  0  0  0  0
   -5.8138   -3.3752    0.2621 H   0  0  0  0  0  0  0  0  0  0  0  0
   -4.9328   -0.1877   -0.4019 H   0  0  0  0  0  0  0  0  0  0  0  0
   -7.9713    0.8237   -3.1850 H   0  0  0  0  0  0  0  0  0  0  0  0
   -8.5424   -1.5295   -3.4300 H   0  0  0  0  0  0  0  0  0  0  0  0
   -7.1722   -4.3762   -1.7214 H   0  0  0  0  0  0  0  0  0  0  0  0
   -8.5595   -3.6794   -2.5514 H   0  0  0  0  0  0  0  0  0  0  0  0
   -9.6299   -3.9258   -0.5455 H   0  0  0  0  0  0  0  0  0  0  0  0
   -8.1330   -4.0768    0.3703 H   0  0  0  0  0  0  0  0  0  0  0  0
   -7.3298   -2.1929    1.6722 H   0  0  0  0  0  0  0  0  0  0  0  0
   -6.9255    0.2292    1.7494 H   0  0  0  0  0  0  0  0  0  0  0  0
   -8.5304    2.6464   -0.5842 H   0  0  0  0  0  0  0  0  0  0  0  0
   -7.4276    2.5464    0.7950 H   0  0  0  0  0  0  0  0  0  0  0  0
   -6.6417    2.6140   -1.8765 H   0  0  0  0  0  0  0  0  0  0  0  0
   -5.6230    2.0707   -0.5396 H   0  0  0  0  0  0  0  0  0  0  0  0
  -10.4512   -1.5787   -1.1374 H   0  0  0  0  0  0  0  0  0  0  0  0
   -9.7819    2.2149   -3.7451 H   0  0  0  0  0  0  0  0  0  0  0  0
   -9.9161    1.3245   -6.0422 H   0  0  0  0  0  0  0  0  0  0  0  0
  -11.1605   -0.7626   -6.4790 H   0  0  0  0  0  0  0  0  0  0  0  0
  -12.2952   -1.9254   -4.6248 H   0  0  0  0  0  0  0  0  0  0  0  0
  -12.1736   -1.0386   -2.3447 H   0  0  0  0  0  0  0  0  0  0  0  0
  -13.4422    1.4538   -1.9880 H   0  0  0  0  0  0  0  0  0  0  0  0
  -15.5471    0.8248   -0.8767 H   0  0  0  0  0  0  0  0  0  0  0  0
  -15.5002   -0.1991    1.3693 H   0  0  0  0  0  0  0  0  0  0  0  0
  -13.3426   -0.5596    2.5093 H   0  0  0  0  0  0  0  0  0  0  0  0
  -11.2402    0.0671    1.4072 H   0  0  0  0  0  0  0  0  0  0  0  0
  1  2  1  0  0  0  0
  2  3  4  0  0  0  0
  3  4  4  0  0  0  0
  4  5  1  0  0  0  0
  4  6  4  0  0  0  0
  6  7  4  0  0  0  0
  2  8  4  0  0  0  0
  7  8  4  0  0  0  0
  7  9  1  0  0  0  0
  6 10  1  0  0  0  0
 10 11  4  0  0  0  0
 11 12  2  0  0  0  0
 12 13  4  0  0  0  0
 10 14  4  0  0  0  0
 13 14  4  0  0  0  0
 13 15  1  0  0  0  0
 15 16  1  0  0  0  0
 16 17  4  0  0  0  0
 17 18  4  0  0  0  0
 18 19  4  0  0  0  0
 19 20  4  0  0  0  0
 16 21  4  0  0  0  0
 20 21  4  0  0  0  0
 21 22  1  0  0  0  0
 22 23  1  0  0  0  0
 23 24  1  0  0  0  0
 24 25  4  0  0  0  0
 25 26  4  0  0  0  0
 26 27  4  0  0  0  0
 27 28  1  0  0  0  0
 18 29  1  0  0  0  0
 28 29  1  0  0  0  0
 27 30  4  0  0  0  0
 24 31  4  0  0  0  0
 30 31  4  0  0  0  0
 30 32  1  0  0  0  0
 32 33  1  0  0  0  0
 33 34  4  0  0  0  0
 34 35  4  0  0  0  0
 35 36  4  0  0  0  0
 36 37  4  0  0  0  0
 33 38  4  0  0  0  0
 37 38  4  0  0  0  0
 32 39  1  0  0  0  0
 39 40  4  0  0  0  0
 40 41  4  0  0  0  0
 41 42  4  0  0  0  0
 42 43  4  0  0  0  0
 39 44  4  0  0  0  0
 43 44  4  0  0  0  0
  1 45  1  0  0  0  0
  1 46  1  0  0  0  0
  1 47  1  0  0  0  0
  3 48  1  0  0  0  0
  5 49  1  0  0  0  0
  5 50  1  0  0  0  0
  5 51  1  0  0  0  0
  8 52  1  0  0  0  0
  9 53  1  0  0  0  0
  9 54  1  0  0  0  0
  9 55  1  0  0  0  0
 11 56  1  0  0  0  0
 12 57  1  0  0  0  0
 14 58  1  0  0  0  0
 15 59  1  0  0  0  0
 15 60  1  0  0  0  0
 17 61  1  0  0  0  0
 19 62  1  0  0  0  0
 20 63  1  0  0  0  0
 22 64  1  0  0  0  0
 22 65  1  0  0  0  0
 23 66  1  0  0  0  0
 23 67  1  0  0  0  0
 25 68  1  0  0  0  0
 26 69  1  0  0  0  0
 28 70  1  0  0  0  0
 28 71  1  0  0  0  0
 29 72  1  0  0  0  0
 29 73  1  0  0  0  0
 31 74  1  0  0  0  0
 34 75  1  0  0  0  0
 35 76  1  0  0  0  0
 36 77  1  0  0  0  0
 37 78  1  0  0  0  0
 38 79  1  0  0  0  0
 40 80  1  0  0  0  0
 41 81  1  0  0  0  0
 42 82  1  0  0  0  0
 43 83  1  0  0  0  0
 44 84  1  0  0  0  0
M  CHG  1   1   1
M  END
