29

N         -3.15786        0.11590       -0.45148
C         -2.00113        0.10059       -0.37570
C         -0.57240        0.05920       -0.25857
C          0.15719        1.23851       -0.09220
C          1.54597        1.18746        0.06571
C          2.22034       -0.04296        0.05741
C          1.48888       -1.22254       -0.12963
C          0.09805       -1.16870       -0.28543
C          3.68632       -0.04154        0.34298
O          4.21338        0.98253        0.77744
C          4.47332       -1.33921        0.27302
N          4.26454       -2.14998        1.48711
C          4.32946       -3.53260        1.56612
C          4.00867       -3.86880        2.85121
N          3.78374       -2.68250        3.52771
C          4.02879       -1.64566        2.71225
C          3.35673       -2.54448        4.91538
H         -0.34882        2.20367       -0.07046
H          2.09215        2.12008        0.21125
H          1.95574       -2.20260       -0.13543
H         -0.46498       -2.09336       -0.41494
H          4.19905       -1.91075       -0.61865
H          5.54123       -1.10555        0.20041
H          4.57953       -4.10362        0.68802
H          3.90528       -4.80427        3.37431
H          3.99196       -0.59629        2.98944
H          4.03100       -1.85648        5.43143
H          2.33873       -2.14476        4.92767
H          3.37243       -3.51635        5.41512
