 xtb: 6.7.1 (edcfbbe)
          12202402123D

 31 31  0     0  0            999 V2000
    0.5945   -0.1738    0.1875 C   0  0  0  0  0  0  0  0  0  0  0  0
    0.0631    1.1027    0.7531 C   0  0  0  0  0  0  0  0  0  0  0  0
   -1.0245    1.5774    0.5200 O   0  0  0  0  0  0  0  0  0  0  0  0
    0.9441    1.6843    1.5750 O   0  0  0  0  0  0  0  0  0  0  0  0
    0.5309    2.8529    2.2726 C   0  0  0  0  0  0  0  0  0  0  0  0
    1.1308    4.1340    1.6838 C   0  0  0  0  0  0  0  0  0  0  0  0
    0.9040    4.3359    0.1835 C   0  0  0  0  0  0  0  0  0  0  0  0
   -0.5624    4.4389   -0.2590 C   0  0  0  0  0  0  0  0  0  0  0  0
   -1.2703    5.5163    0.4121 N   0  0  0  0  0  0  0  0  0  0  0  0
   -2.1877    5.2385    1.3360 C   0  0  0  0  0  0  0  0  0  0  0  0
   -2.8465    6.2576    2.0058 C   0  0  0  0  0  0  0  0  0  0  0  0
   -2.5546    7.5724    1.7130 C   0  0  0  0  0  0  0  0  0  0  0  0
   -1.5918    7.8569    0.7287 C   0  0  0  0  0  0  0  0  0  0  0  0
   -0.9674    6.7817    0.0996 C   0  0  0  0  0  0  0  0  0  0  0  0
   -1.3289    9.1239    0.4479 O   0  0  0  0  0  0  0  0  0  0  0  0
    0.2638   -0.2919   -0.8408 H   0  0  0  0  0  0  0  0  0  0  0  0
    0.1872   -1.0020    0.7663 H   0  0  0  0  0  0  0  0  0  0  0  0
    1.6774   -0.1982    0.2567 H   0  0  0  0  0  0  0  0  0  0  0  0
   -0.5634    2.8868    2.2753 H   0  0  0  0  0  0  0  0  0  0  0  0
    0.8849    2.7335    3.2994 H   0  0  0  0  0  0  0  0  0  0  0  0
    0.7320    4.9767    2.2532 H   0  0  0  0  0  0  0  0  0  0  0  0
    2.2093    4.1067    1.8447 H   0  0  0  0  0  0  0  0  0  0  0  0
    1.4493    5.2312   -0.1212 H   0  0  0  0  0  0  0  0  0  0  0  0
    1.3362    3.4924   -0.3565 H   0  0  0  0  0  0  0  0  0  0  0  0
   -0.5911    4.6191   -1.3362 H   0  0  0  0  0  0  0  0  0  0  0  0
   -1.0730    3.4940   -0.0542 H   0  0  0  0  0  0  0  0  0  0  0  0
   -2.4056    4.1988    1.5262 H   0  0  0  0  0  0  0  0  0  0  0  0
   -3.5873    6.0121    2.7493 H   0  0  0  0  0  0  0  0  0  0  0  0
   -3.0472    8.3939    2.2082 H   0  0  0  0  0  0  0  0  0  0  0  0
   -0.2240    6.9359   -0.6703 H   0  0  0  0  0  0  0  0  0  0  0  0
   -0.6687    9.2475   -0.2484 H   0  0  0  0  0  0  0  0  0  0  0  0
  1  2  1  0  0  0  0
  2  3  2  0  0  0  0
  2  4  1  0  0  0  0
  4  5  1  0  0  0  0
  5  6  1  0  0  0  0
  6  7  1  0  0  0  0
  7  8  1  0  0  0  0
  8  9  1  0  0  0  0
  9 10  4  0  0  0  0
 10 11  4  0  0  0  0
 11 12  4  0  0  0  0
 12 13  4  0  0  0  0
  9 14  4  0  0  0  0
 13 14  4  0  0  0  0
 13 15  1  0  0  0  0
  1 16  1  0  0  0  0
  1 17  1  0  0  0  0
  1 18  1  0  0  0  0
  5 19  1  0  0  0  0
  5 20  1  0  0  0  0
  6 21  1  0  0  0  0
  6 22  1  0  0  0  0
  7 23  1  0  0  0  0
  7 24  1  0  0  0  0
  8 25  1  0  0  0  0
  8 26  1  0  0  0  0
 10 27  1  0  0  0  0
 11 28  1  0  0  0  0
 12 29  1  0  0  0  0
 14 30  1  0  0  0  0
 15 31  1  0  0  0  0
M  CHG  1   1   1
M  END
