84

C          2.37489        1.96480        0.06387
C          1.20088        1.02733        0.11909
C         -0.10472        1.53877        0.05373
C         -1.21490        0.69023        0.13296
C         -2.59991        1.25880        0.04833
C         -0.96786       -0.67916        0.27457
C          0.31394       -1.23325        0.34892
C          1.39995       -0.35207        0.28341
C          0.55285       -2.70528        0.50209
N         -2.10349       -1.57374        0.28946
C         -2.72930       -2.12077        1.39297
C         -3.75680       -2.88476        0.91579
N         -3.73003       -2.78148       -0.46706
C         -2.70054       -2.00016       -0.83158
C         -4.59291       -3.49049       -1.41043
C         -5.80569       -2.68339       -1.80209
C         -5.68550       -1.33330       -2.19424
C         -6.78822       -0.64235       -2.70445
C         -7.88944       -1.38713       -3.12947
C         -8.05471       -2.69939       -2.69921
C         -7.09074       -3.27388       -1.86390
C         -7.58641       -4.25570       -0.79769
C         -8.71030       -3.68028        0.14683
C         -8.60693       -2.18488        0.40056
C         -7.43461       -1.64385        0.92053
C         -7.09023       -0.34245        0.57397
C         -7.95227        0.43380       -0.22778
C         -7.27747        1.43216       -1.16855
C         -6.91691        0.86964       -2.59633
C         -9.30337        0.04552       -0.36096
C         -9.58822       -1.30871       -0.10383
P        -10.60668        1.28061       -0.73513
C        -10.68990        1.33375       -2.54160
C        -10.43807        2.56455       -3.17327
C        -10.51137        2.69274       -4.56220
C        -10.84595        1.59172       -5.34377
C        -11.11009        0.36655       -4.73642
C        -11.03151        0.23893       -3.34535
C        -12.17638        0.51698       -0.19130
C        -13.32733        0.48029       -0.99520
C        -14.50992       -0.11926       -0.54796
C        -14.57725       -0.66447        0.72948
C        -13.46919       -0.59170        1.56664
C        -12.28716        0.00444        1.11461
H          2.21373        2.73649       -0.69620
H          2.51676        2.44382        1.03741
H          3.29460        1.43317       -0.20176
H         -0.24712        2.61411       -0.05687
H         -2.59167        2.34858        0.15677
H         -3.04897        1.01789       -0.92005
H         -3.23225        0.86312        0.84945
H          2.41760       -0.73767        0.35055
H          0.23626       -3.03970        1.49467
H          0.00667       -3.26640       -0.26297
H          1.61347       -2.95325        0.38634
H         -2.35651       -1.88953        2.37626
H         -4.50614       -3.50146        1.38202
H         -2.40481       -1.75806       -1.84632
H         -4.00918       -3.70096       -2.31531
H         -4.84562       -4.46223       -0.97738
H         -4.77531       -0.77613       -2.00435
H         -8.71349       -0.89727       -3.63432
H         -9.02510       -3.17238       -2.84030
H         -6.75618       -4.56025       -0.15245
H         -7.94859       -5.17016       -1.28208
H         -9.68517       -3.90176       -0.30594
H         -8.69123       -4.21500        1.10436
H         -6.70301       -2.27839        1.40564
H         -6.07803       -0.00026        0.77382
H         -7.87430        2.34473       -1.27236
H         -6.34322        1.76988       -0.69883
H         -7.68260        1.20699       -3.30550
H         -5.98612        1.33809       -2.94040
H        -10.55757       -1.71653       -0.38481
H        -10.19144        3.44697       -2.58454
H        -10.31899        3.65553       -5.02925
H        -10.91147        1.69176       -6.42433
H        -11.38192       -0.49179       -5.34568
H        -11.24867       -0.72781       -2.89638
H        -13.33528        0.92403       -1.98791
H        -15.38078       -0.14849       -1.19849
H        -15.49738       -1.12658        1.07759
H        -13.52360       -0.99212        2.57565
H        -11.44429        0.05896        1.80168
