 xtb: 6.7.1 (edcfbbe)
          12202402123D

 19 19  0     0  0            999 V2000
    1.1022    0.1004    0.0575 C   0  0  0  0  0  0  0  0  0  0  0  0
   -0.0259    0.2509    0.1021 N   0  0  0  0  0  0  0  0  0  0  0  0
    2.5446   -0.0809   -0.0321 C   0  0  0  0  0  0  0  0  0  0  0  0
    3.0650    0.5586   -1.2344 N   0  0  0  0  0  0  0  0  0  0  0  0
    3.1421    1.9059   -1.3053 C   0  0  0  0  0  0  0  0  0  0  0  0
    3.6152    2.4845   -2.4791 C   0  0  0  0  0  0  0  0  0  0  0  0
    3.9890    1.7027   -3.5561 C   0  0  0  0  0  0  0  0  0  0  0  0
    3.8857    0.3185   -3.4476 C   0  0  0  0  0  0  0  0  0  0  0  0
    3.4186   -0.2186   -2.2734 C   0  0  0  0  0  0  0  0  0  0  0  0
    2.7312    2.7360   -0.1477 C   0  0  0  0  0  0  0  0  0  0  0  0
    3.0112    0.3419    0.8642 H   0  0  0  0  0  0  0  0  0  0  0  0
    2.7546   -1.1544   -0.0587 H   0  0  0  0  0  0  0  0  0  0  0  0
    3.6816    3.5595   -2.5363 H   0  0  0  0  0  0  0  0  0  0  0  0
    4.3517    2.1574   -4.4645 H   0  0  0  0  0  0  0  0  0  0  0  0
    4.1622   -0.3310   -4.2619 H   0  0  0  0  0  0  0  0  0  0  0  0
    3.3190   -1.2868   -2.1478 H   0  0  0  0  0  0  0  0  0  0  0  0
    1.7061    2.5199    0.1548 H   0  0  0  0  0  0  0  0  0  0  0  0
    3.3768    2.5593    0.7146 H   0  0  0  0  0  0  0  0  0  0  0  0
    2.7965    3.7905   -0.3995 H   0  0  0  0  0  0  0  0  0  0  0  0
  1  2  3  0  0  0  0
  1  3  1  0  0  0  0
  3  4  1  0  0  0  0
  4  5  4  0  0  0  0
  5  6  4  0  0  0  0
  6  7  4  0  0  0  0
  7  8  4  0  0  0  0
  4  9  4  0  0  0  0
  8  9  4  0  0  0  0
  5 10  1  0  0  0  0
  3 11  1  0  0  0  0
  3 12  1  0  0  0  0
  6 13  1  0  0  0  0
  7 14  1  0  0  0  0
  8 15  1  0  0  0  0
  9 16  1  0  0  0  0
 10 17  1  0  0  0  0
 10 18  1  0  0  0  0
 10 19  1  0  0  0  0
M  CHG  1   1   1
M  END
