102

C          1.04273        1.10942        1.24869
C          1.03484        0.99206       -0.26907
C          1.32682       -0.42684       -0.75861
C          0.26207       -1.45933       -0.38313
C         -1.04275       -1.37776       -1.19051
C         -0.91607       -1.60556       -2.70500
C         -0.16417       -2.87150       -3.14396
N         -1.07025       -3.97871       -3.44805
C         -1.19020       -5.00320       -2.46902
C         -1.00306       -4.97041       -1.10106
C         -1.13332       -6.15668       -0.37058
Cl        -0.88312       -6.06277        1.33779
C         -1.44736       -7.36344       -1.01871
C         -1.66857       -7.39081       -2.40058
C         -1.55348       -6.20980       -3.11243
N         -1.68700       -5.94948       -4.48443
C         -1.28567       -4.61132       -4.70256
C         -1.20890       -4.08691       -5.94324
C         -0.91909       -2.72992       -6.34952
C         -1.66936       -2.09838       -7.26301
C         -1.50071       -0.72841       -7.86633
N         -0.64395        0.26172       -7.50679
C         -0.02873        0.40888       -6.17368
C          1.42297       -0.06324       -6.08393
C          2.50567        1.00241       -6.29255
C          2.38251        2.27495       -5.44291
C          2.37475        2.05671       -3.92725
C          3.70983        1.59617       -3.33929
C          4.79926        2.65427       -3.43700
C         -0.64263        1.25792       -8.48431
C         -1.66469        0.93306       -9.37420
N         -2.23480       -0.24498       -8.90047
C         -3.51141       -0.79933       -9.40044
C         -3.38293       -1.59182      -10.70477
C         -2.80060       -2.99780      -10.56744
C         -3.55254       -3.91555       -9.63866
O         -3.06941       -4.91285       -9.12783
O         -4.78341       -3.48156       -9.32700
C         -1.99731        1.74519      -10.45659
C         -1.23951        2.91402      -10.61495
C         -0.20630        3.24654       -9.71427
C          0.10435        2.42453       -8.62219
Cl         0.73044        4.68961       -9.88732
Cl        -1.64596        3.93038      -11.95256
C         -2.24216       -6.93748       -5.39745
C         -3.57882       -6.52326       -6.02765
C         -4.53432       -5.71207       -5.15188
C         -4.61834       -4.28674       -5.64704
O         -5.04679       -3.97607       -6.75484
O         -4.13426       -3.36215       -4.79213
Cl        -1.56153       -8.86093       -0.16316
H          0.18653        0.59621        1.69568
H          0.98944        2.16104        1.54626
H          1.95903        0.68424        1.67159
H          0.07839        1.34879       -0.66480
H          1.80793        1.65998       -0.66525
H          1.47104       -0.41354       -1.84408
H          2.28628       -0.75063       -0.33517
H          0.71141       -2.45014       -0.49188
H          0.01767       -1.38212        0.68169
H         -1.75802       -2.10005       -0.78171
H         -1.50219       -0.39503       -1.02692
H         -1.92154       -1.58835       -3.14583
H         -0.39571       -0.73583       -3.12312
H          0.41921       -2.61931       -4.03067
H          0.60917       -3.17163       -2.43217
H         -0.75713       -4.05977       -0.57952
H         -1.88745       -8.33386       -2.88704
H         -1.42688       -4.74484       -6.78503
H         -0.00745       -2.30273       -5.96960
H         -2.53951       -2.63199       -7.62149
H         -0.15515        1.44626       -5.85313
H         -0.64306       -0.16390       -5.47138
H          1.57728       -0.50019       -5.08945
H          1.59818       -0.87226       -6.80304
H          3.48118        0.53891       -6.09996
H          2.52607        1.28466       -7.35046
H          3.19647        2.95502       -5.71766
H          1.46605        2.81013       -5.71085
H          2.08564        2.99890       -3.44419
H          1.59590        1.33445       -3.65954
H          3.55937        1.36186       -2.27951
H          4.04616        0.67076       -3.81781
H          4.46606        3.60234       -3.00189
H          5.69077        2.32870       -2.89192
H          5.09239        2.83485       -4.47497
H         -3.99919       -1.35108       -8.59519
H         -4.17001        0.05942       -9.58732
H         -4.37964       -1.67017      -11.15690
H         -2.76384       -1.03460      -11.41716
H         -2.77566       -3.47818      -11.55165
H         -1.77114       -2.92408      -10.19986
H         -5.07851       -3.99686       -8.52868
H         -2.80338        1.48948      -11.13333
H          0.88173        2.69278       -7.92291
H         -1.51736       -7.15068       -6.19300
H         -2.40486       -7.89882       -4.89957
H         -3.36720       -5.98500       -6.95414
H         -4.09087       -7.44119       -6.34394
H         -5.55031       -6.11774       -5.23038
H         -4.28551       -5.75103       -4.08799
H         -3.69418       -3.75173       -4.00437
