19

C          1.00797       -0.09801        0.01820
N         -0.25300       -0.09801        0.01820
C          2.52797       -0.09801        0.01820
N          3.05629        0.56738       -1.20784
C          3.17276        1.92760       -1.29000
C          3.65052        2.50019       -2.47968
C          3.99013        1.69887       -3.56077
C          3.85259        0.32633       -3.45256
C          3.38081       -0.21856       -2.26689
C          2.80568        2.82327       -0.13842
H          2.92596        0.41707        0.89646
H          2.90446       -1.12633        0.04210
H          3.75302        3.58152       -2.57173
H          4.35395        2.14648       -4.48511
H          4.10636       -0.31708       -4.29302
H          3.25367       -1.29396       -2.16353
H          1.77062        2.65148        0.16875
H          3.47573        2.64340        0.70719
H          2.89195        3.88056       -0.41062
