 xtb: 6.7.1 (edcfbbe)
          12202402133D

 24 25  0     0  0            999 V2000
    1.1596    0.0734   -0.0994 N   0  0  0  0  0  0  0  0  0  0  0  0
    0.3160   -0.4047    0.6019 N   0  0  0  0  0  0  0  0  0  0  0  0
   -0.6199   -0.7594    1.0957 N   0  0  0  0  0  0  0  0  0  0  0  0
    2.5783    0.0041    0.0727 C   0  0  0  0  0  0  0  0  0  0  0  0
    3.2080    0.3156   -1.3061 C   0  0  0  0  0  0  0  0  0  0  0  0
    2.7168    1.5626   -1.8366 N   0  0  0  0  0  0  0  0  0  0  0  0
    3.3417    2.7394   -1.8245 C   0  0  0  0  0  0  0  0  0  0  0  0
    2.5501    3.6649   -2.3589 N   0  0  0  0  0  0  0  0  0  0  0  0
    1.3811    3.0643   -2.7141 C   0  0  0  0  0  0  0  0  0  0  0  0
    1.4851    1.7459   -2.3881 C   0  0  0  0  0  0  0  0  0  0  0  0
    2.8569    5.0615   -2.5174 C   0  0  0  0  0  0  0  0  0  0  0  0
    3.0735    0.9896    1.1402 C   0  0  0  0  0  0  0  0  0  0  0  0
    2.4513    0.4489    2.9327 Br  0  0  0  0  0  0  0  0  0  0  0  0
    2.8956   -1.0100    0.3573 H   0  0  0  0  0  0  0  0  0  0  0  0
    4.2942    0.3596   -1.2176 H   0  0  0  0  0  0  0  0  0  0  0  0
    2.9362   -0.4839   -1.9994 H   0  0  0  0  0  0  0  0  0  0  0  0
    4.3352    2.9127   -1.4582 H   0  0  0  0  0  0  0  0  0  0  0  0
    0.5715    3.5992   -3.1678 H   0  0  0  0  0  0  0  0  0  0  0  0
    0.7822    0.9468   -2.5037 H   0  0  0  0  0  0  0  0  0  0  0  0
    2.5107    5.6278   -1.6506 H   0  0  0  0  0  0  0  0  0  0  0  0
    3.9312    5.2009   -2.6213 H   0  0  0  0  0  0  0  0  0  0  0  0
    2.3582    5.4484   -3.4041 H   0  0  0  0  0  0  0  0  0  0  0  0
    4.1614    1.0017    1.1815 H   0  0  0  0  0  0  0  0  0  0  0  0
    2.6861    1.9935    0.9676 H   0  0  0  0  0  0  0  0  0  0  0  0
  1  2  2  0  0  0  0
  1  3  1  0  0  0  0
  2  3  2  0  0  0  0
  1  4  1  0  0  0  0
  4  5  1  0  0  0  0
  5  6  1  0  0  0  0
  6  7  4  0  0  0  0
  7  8  4  0  0  0  0
  8  9  4  0  0  0  0
  6 10  4  0  0  0  0
  9 10  2  0  0  0  0
  8 11  1  0  0  0  0
  4 12  1  0  0  0  0
 12 13  1  0  0  0  0
  4 14  1  0  0  0  0
  5 15  1  0  0  0  0
  5 16  1  0  0  0  0
  7 17  1  0  0  0  0
  9 18  1  0  0  0  0
 10 19  1  0  0  0  0
 11 20  1  0  0  0  0
 11 21  1  0  0  0  0
 11 22  1  0  0  0  0
 12 23  1  0  0  0  0
 12 24  1  0  0  0  0
M  CHG  1   1   1
M  END
