 xtb: 6.7.1 (edcfbbe)
          12202402123D

 25 26  0     0  0            999 V2000
    1.2820    0.3720   -0.1049 C   0  0  0  0  0  0  0  0  0  0  0  0
    0.2429    0.5695   -1.2038 C   0  0  0  0  0  0  0  0  0  0  0  0
    0.6512   -0.0873   -2.4269 N   0  0  0  0  0  0  0  0  0  0  0  0
    1.2808    0.4764   -3.4522 C   0  0  0  0  0  0  0  0  0  0  0  0
    1.5645   -0.4133   -4.3968 N   0  0  0  0  0  0  0  0  0  0  0  0
    2.2296   -0.1656   -5.6473 C   0  0  0  0  0  0  0  0  0  0  0  0
    1.1000   -1.6405   -3.9699 C   0  0  0  0  0  0  0  0  0  0  0  0
    1.1279   -2.8992   -4.5587 C   0  0  0  0  0  0  0  0  0  0  0  0
    0.5591   -3.9318   -3.8430 C   0  0  0  0  0  0  0  0  0  0  0  0
   -0.0192   -3.7267   -2.5862 C   0  0  0  0  0  0  0  0  0  0  0  0
   -0.0525   -2.4819   -1.9932 C   0  0  0  0  0  0  0  0  0  0  0  0
    0.5181   -1.4324   -2.7046 C   0  0  0  0  0  0  0  0  0  0  0  0
    1.4289   -0.6841    0.1063 H   0  0  0  0  0  0  0  0  0  0  0  0
    0.9433    0.8606    0.8035 H   0  0  0  0  0  0  0  0  0  0  0  0
    2.2362    0.8064   -0.3926 H   0  0  0  0  0  0  0  0  0  0  0  0
   -0.7176    0.1491   -0.8987 H   0  0  0  0  0  0  0  0  0  0  0  0
    0.1090    1.6325   -1.4128 H   0  0  0  0  0  0  0  0  0  0  0  0
    1.5226    1.5213   -3.5116 H   0  0  0  0  0  0  0  0  0  0  0  0
    3.1389   -0.7648   -5.7102 H   0  0  0  0  0  0  0  0  0  0  0  0
    1.5755   -0.4361   -6.4772 H   0  0  0  0  0  0  0  0  0  0  0  0
    2.4894    0.8873   -5.7258 H   0  0  0  0  0  0  0  0  0  0  0  0
    1.5711   -3.0612   -5.5271 H   0  0  0  0  0  0  0  0  0  0  0  0
    0.5579   -4.9255   -4.2613 H   0  0  0  0  0  0  0  0  0  0  0  0
   -0.4510   -4.5680   -2.0682 H   0  0  0  0  0  0  0  0  0  0  0  0
   -0.5007   -2.3344   -1.0247 H   0  0  0  0  0  0  0  0  0  0  0  0
  1  2  1  0  0  0  0
  2  3  1  0  0  0  0
  3  4  4  0  0  0  0
  4  5  4  0  0  0  0
  5  6  1  0  0  0  0
  5  7  1  0  0  0  0
  7  8  4  0  0  0  0
  8  9  4  0  0  0  0
  9 10  4  0  0  0  0
 10 11  4  0  0  0  0
  3 12  1  0  0  0  0
  7 12  4  0  0  0  0
 11 12  4  0  0  0  0
  1 13  1  0  0  0  0
  1 14  1  0  0  0  0
  1 15  1  0  0  0  0
  2 16  1  0  0  0  0
  2 17  1  0  0  0  0
  4 18  1  0  0  0  0
  6 19  1  0  0  0  0
  6 20  1  0  0  0  0
  6 21  1  0  0  0  0
  8 22  1  0  0  0  0
  9 23  1  0  0  0  0
 10 24  1  0  0  0  0
 11 25  1  0  0  0  0
M  CHG  1   1   1
M  END
