 xtb: 6.7.1 (edcfbbe)
          12202402133D

 38 38  0     0  0            999 V2000
    1.0764    0.0333    0.0214 C   0  0  0  0  0  0  0  0  0  0  0  0
    0.4714    0.4431   -1.3286 C   0  0  0  0  0  0  0  0  0  0  0  0
    0.9803   -0.3581   -2.5285 C   0  0  0  0  0  0  0  0  0  0  0  0
    0.5070   -1.8114   -2.6297 C   0  0  0  0  0  0  0  0  0  0  0  0
   -1.0081   -2.0166   -2.5753 C   0  0  0  0  0  0  0  0  0  0  0  0
   -1.7963   -1.2700   -3.6539 C   0  0  0  0  0  0  0  0  0  0  0  0
   -1.4205   -1.6335   -5.0928 C   0  0  0  0  0  0  0  0  0  0  0  0
   -1.5972   -3.1091   -5.4550 C   0  0  0  0  0  0  0  0  0  0  0  0
   -3.0383   -3.5910   -5.3370 C   0  0  0  0  0  0  0  0  0  0  0  0
    0.5891   -1.2501    0.4934 N   0  0  0  0  0  0  0  0  0  0  0  0
    1.4005   -2.3214    0.5727 C   0  0  0  0  0  0  0  0  0  0  0  0
    1.0113   -3.4963    0.9682 N   0  0  0  0  0  0  0  0  0  0  0  0
   -0.2568   -3.6757    1.3105 C   0  0  0  0  0  0  0  0  0  0  0  0
   -1.1687   -2.6251    1.2641 C   0  0  0  0  0  0  0  0  0  0  0  0
   -0.6983   -1.3974    0.8373 C   0  0  0  0  0  0  0  0  0  0  0  0
    0.8204    0.7881    0.7701 H   0  0  0  0  0  0  0  0  0  0  0  0
    2.1629   -0.0193   -0.0646 H   0  0  0  0  0  0  0  0  0  0  0  0
   -0.6165    0.3988   -1.2831 H   0  0  0  0  0  0  0  0  0  0  0  0
    0.7456    1.4881   -1.4804 H   0  0  0  0  0  0  0  0  0  0  0  0
    0.6578    0.1696   -3.4263 H   0  0  0  0  0  0  0  0  0  0  0  0
    2.0723   -0.3462   -2.5294 H   0  0  0  0  0  0  0  0  0  0  0  0
    0.8702   -2.2034   -3.5802 H   0  0  0  0  0  0  0  0  0  0  0  0
    0.9750   -2.4217   -1.8510 H   0  0  0  0  0  0  0  0  0  0  0  0
   -1.2048   -3.0859   -2.6681 H   0  0  0  0  0  0  0  0  0  0  0  0
   -1.3955   -1.7125   -1.5946 H   0  0  0  0  0  0  0  0  0  0  0  0
   -2.8560   -1.4808   -3.5024 H   0  0  0  0  0  0  0  0  0  0  0  0
   -1.6633   -0.1932   -3.5273 H   0  0  0  0  0  0  0  0  0  0  0  0
   -2.0491   -1.0372   -5.7572 H   0  0  0  0  0  0  0  0  0  0  0  0
   -0.3851   -1.3451   -5.2855 H   0  0  0  0  0  0  0  0  0  0  0  0
   -1.2691   -3.2391   -6.4883 H   0  0  0  0  0  0  0  0  0  0  0  0
   -0.9506   -3.7313   -4.8325 H   0  0  0  0  0  0  0  0  0  0  0  0
   -3.7003   -2.9542   -5.9192 H   0  0  0  0  0  0  0  0  0  0  0  0
   -3.1253   -4.6070   -5.7138 H   0  0  0  0  0  0  0  0  0  0  0  0
   -3.3768   -3.5866   -4.3032 H   0  0  0  0  0  0  0  0  0  0  0  0
    2.4416   -2.1976    0.3028 H   0  0  0  0  0  0  0  0  0  0  0  0
   -0.5297   -4.6717    1.6291 H   0  0  0  0  0  0  0  0  0  0  0  0
   -2.2011   -2.7526    1.5463 H   0  0  0  0  0  0  0  0  0  0  0  0
   -1.3321   -0.5222    0.7919 H   0  0  0  0  0  0  0  0  0  0  0  0
  1  2  1  0  0  0  0
  2  3  1  0  0  0  0
  3  4  1  0  0  0  0
  4  5  1  0  0  0  0
  5  6  1  0  0  0  0
  6  7  1  0  0  0  0
  7  8  1  0  0  0  0
  8  9  1  0  0  0  0
  1 10  1  0  0  0  0
 10 11  4  0  0  0  0
 11 12  2  0  0  0  0
 12 13  4  0  0  0  0
 13 14  4  0  0  0  0
 10 15  4  0  0  0  0
 14 15  4  0  0  0  0
  1 16  1  0  0  0  0
  1 17  1  0  0  0  0
  2 18  1  0  0  0  0
  2 19  1  0  0  0  0
  3 20  1  0  0  0  0
  3 21  1  0  0  0  0
  4 22  1  0  0  0  0
  4 23  1  0  0  0  0
  5 24  1  0  0  0  0
  5 25  1  0  0  0  0
  6 26  1  0  0  0  0
  6 27  1  0  0  0  0
  7 28  1  0  0  0  0
  7 29  1  0  0  0  0
  8 30  1  0  0  0  0
  8 31  1  0  0  0  0
  9 32  1  0  0  0  0
  9 33  1  0  0  0  0
  9 34  1  0  0  0  0
 11 35  1  0  0  0  0
 13 36  1  0  0  0  0
 14 37  1  0  0  0  0
 15 38  1  0  0  0  0
M  CHG  1   1   1
M  END
