 xtb: 6.7.1 (edcfbbe)
          12202402133D

 83 82  0     0  0            999 V2000
    2.5072    0.2399    0.9710 C   0  0  0  0  0  0  0  0  0  0  0  0
    1.8853   -0.2221    2.2833 C   0  0  0  0  0  0  0  0  0  0  0  0
    1.5423    0.9300    3.2294 C   0  0  0  0  0  0  0  0  0  0  0  0
    0.5270    1.9353    2.6813 C   0  0  0  0  0  0  0  0  0  0  0  0
   -0.8255    1.3385    2.2870 C   0  0  0  0  0  0  0  0  0  0  0  0
   -1.5650    0.6047    3.4090 C   0  0  0  0  0  0  0  0  0  0  0  0
   -1.8455    1.4422    4.6593 C   0  0  0  0  0  0  0  0  0  0  0  0
   -2.7368    2.6689    4.4157 C   0  0  0  0  0  0  0  0  0  0  0  0
   -4.5145    2.3753    4.7169 P   0  0  0  0  0  0  0  0  0  0  0  0
   -4.7695    1.8411    6.4514 C   0  0  0  0  0  0  0  0  0  0  0  0
   -3.9037    2.5395    7.5014 C   0  0  0  0  0  0  0  0  0  0  0  0
   -4.1733    4.0364    7.6476 C   0  0  0  0  0  0  0  0  0  0  0  0
   -5.5601    4.3934    8.1891 C   0  0  0  0  0  0  0  0  0  0  0  0
   -5.8789    3.8253    9.5744 C   0  0  0  0  0  0  0  0  0  0  0  0
   -4.9015    4.2250   10.6816 C   0  0  0  0  0  0  0  0  0  0  0  0
   -4.7779    5.7310   10.9194 C   0  0  0  0  0  0  0  0  0  0  0  0
   -6.0823    6.3769   11.3708 C   0  0  0  0  0  0  0  0  0  0  0  0
   -5.5465    3.8566    4.3628 C   0  0  0  0  0  0  0  0  0  0  0  0
   -4.8344    5.0339    3.6912 C   0  0  0  0  0  0  0  0  0  0  0  0
   -4.6145    4.8439    2.1901 C   0  0  0  0  0  0  0  0  0  0  0  0
   -5.8832    4.9735    1.3429 C   0  0  0  0  0  0  0  0  0  0  0  0
   -6.5474    6.3523    1.3748 C   0  0  0  0  0  0  0  0  0  0  0  0
   -5.6494    7.5185    0.9565 C   0  0  0  0  0  0  0  0  0  0  0  0
   -5.0556    7.4040   -0.4486 C   0  0  0  0  0  0  0  0  0  0  0  0
   -6.1121    7.3592   -1.5459 C   0  0  0  0  0  0  0  0  0  0  0  0
   -5.1663    0.9659    3.7463 C   0  0  0  0  0  0  0  0  0  0  0  0
   -5.1695    1.1673    2.2362 C   0  0  0  0  0  0  0  0  0  0  0  0
    1.7985    0.8082    0.3738 H   0  0  0  0  0  0  0  0  0  0  0  0
    2.8260   -0.6191    0.3861 H   0  0  0  0  0  0  0  0  0  0  0  0
    3.3771    0.8640    1.1611 H   0  0  0  0  0  0  0  0  0  0  0  0
    0.9932   -0.8159    2.0746 H   0  0  0  0  0  0  0  0  0  0  0  0
    2.5943   -0.8756    2.7961 H   0  0  0  0  0  0  0  0  0  0  0  0
    1.1764    0.5126    4.1706 H   0  0  0  0  0  0  0  0  0  0  0  0
    2.4609    1.4756    3.4562 H   0  0  0  0  0  0  0  0  0  0  0  0
    0.3794    2.7206    3.4271 H   0  0  0  0  0  0  0  0  0  0  0  0
    0.9494    2.4167    1.7984 H   0  0  0  0  0  0  0  0  0  0  0  0
   -1.4494    2.1426    1.8853 H   0  0  0  0  0  0  0  0  0  0  0  0
   -0.6748    0.6283    1.4732 H   0  0  0  0  0  0  0  0  0  0  0  0
   -2.5002    0.2127    3.0050 H   0  0  0  0  0  0  0  0  0  0  0  0
   -0.9661   -0.2530    3.7169 H   0  0  0  0  0  0  0  0  0  0  0  0
   -2.2931    0.7949    5.4182 H   0  0  0  0  0  0  0  0  0  0  0  0
   -0.8919    1.7879    5.0591 H   0  0  0  0  0  0  0  0  0  0  0  0
   -2.4555    3.4817    5.0915 H   0  0  0  0  0  0  0  0  0  0  0  0
   -2.6110    3.0371    3.3969 H   0  0  0  0  0  0  0  0  0  0  0  0
   -5.8310    1.9819    6.6734 H   0  0  0  0  0  0  0  0  0  0  0  0
   -4.5733    0.7645    6.4765 H   0  0  0  0  0  0  0  0  0  0  0  0
   -4.0810    2.0500    8.4597 H   0  0  0  0  0  0  0  0  0  0  0  0
   -2.8493    2.3913    7.2594 H   0  0  0  0  0  0  0  0  0  0  0  0
   -3.4230    4.4493    8.3223 H   0  0  0  0  0  0  0  0  0  0  0  0
   -4.0351    4.5239    6.6763 H   0  0  0  0  0  0  0  0  0  0  0  0
   -5.6336    5.4811    8.2274 H   0  0  0  0  0  0  0  0  0  0  0  0
   -6.3361    4.0480    7.4994 H   0  0  0  0  0  0  0  0  0  0  0  0
   -6.8797    4.1607    9.8492 H   0  0  0  0  0  0  0  0  0  0  0  0
   -5.9162    2.7343    9.5243 H   0  0  0  0  0  0  0  0  0  0  0  0
   -5.2406    3.7566   11.6081 H   0  0  0  0  0  0  0  0  0  0  0  0
   -3.9111    3.8198   10.4618 H   0  0  0  0  0  0  0  0  0  0  0  0
   -4.0238    5.8865   11.6938 H   0  0  0  0  0  0  0  0  0  0  0  0
   -4.4183    6.2271   10.0155 H   0  0  0  0  0  0  0  0  0  0  0  0
   -6.4761    5.8657   12.2460 H   0  0  0  0  0  0  0  0  0  0  0  0
   -5.9133    7.4184   11.6324 H   0  0  0  0  0  0  0  0  0  0  0  0
   -6.8339    6.3457   10.5858 H   0  0  0  0  0  0  0  0  0  0  0  0
   -6.3830    3.5232    3.7437 H   0  0  0  0  0  0  0  0  0  0  0  0
   -5.9594    4.1768    5.3221 H   0  0  0  0  0  0  0  0  0  0  0  0
   -5.4412    5.9264    3.8461 H   0  0  0  0  0  0  0  0  0  0  0  0
   -3.8751    5.2153    4.1803 H   0  0  0  0  0  0  0  0  0  0  0  0
   -3.8928    5.5863    1.8497 H   0  0  0  0  0  0  0  0  0  0  0  0
   -4.1782    3.8574    2.0102 H   0  0  0  0  0  0  0  0  0  0  0  0
   -5.6223    4.7314    0.3119 H   0  0  0  0  0  0  0  0  0  0  0  0
   -6.6255    4.2367    1.6634 H   0  0  0  0  0  0  0  0  0  0  0  0
   -7.4137    6.3183    0.7132 H   0  0  0  0  0  0  0  0  0  0  0  0
   -6.9281    6.5550    2.3789 H   0  0  0  0  0  0  0  0  0  0  0  0
   -6.2477    8.4308    1.0045 H   0  0  0  0  0  0  0  0  0  0  0  0
   -4.8353    7.6322    1.6763 H   0  0  0  0  0  0  0  0  0  0  0  0
   -4.4159    8.2738   -0.6130 H   0  0  0  0  0  0  0  0  0  0  0  0
   -4.4200    6.5187   -0.5182 H   0  0  0  0  0  0  0  0  0  0  0  0
   -6.7859    8.2082   -1.4588 H   0  0  0  0  0  0  0  0  0  0  0  0
   -5.6386    7.3993   -2.5236 H   0  0  0  0  0  0  0  0  0  0  0  0
   -6.6997    6.4459   -1.4943 H   0  0  0  0  0  0  0  0  0  0  0  0
   -4.5724    0.0877    4.0142 H   0  0  0  0  0  0  0  0  0  0  0  0
   -6.1866    0.7974    4.1073 H   0  0  0  0  0  0  0  0  0  0  0  0
   -4.1669    1.3464    1.8555 H   0  0  0  0  0  0  0  0  0  0  0  0
   -5.5541    0.2718    1.7537 H   0  0  0  0  0  0  0  0  0  0  0  0
   -5.8050    1.9995    1.9453 H   0  0  0  0  0  0  0  0  0  0  0  0
  1  2  1  0  0  0  0
  2  3  1  0  0  0  0
  3  4  1  0  0  0  0
  4  5  1  0  0  0  0
  5  6  1  0  0  0  0
  6  7  1  0  0  0  0
  7  8  1  0  0  0  0
  8  9  1  0  0  0  0
  9 10  1  0  0  0  0
 10 11  1  0  0  0  0
 11 12  1  0  0  0  0
 12 13  1  0  0  0  0
 13 14  1  0  0  0  0
 14 15  1  0  0  0  0
 15 16  1  0  0  0  0
 16 17  1  0  0  0  0
  9 18  1  0  0  0  0
 18 19  1  0  0  0  0
 19 20  1  0  0  0  0
 20 21  1  0  0  0  0
 21 22  1  0  0  0  0
 22 23  1  0  0  0  0
 23 24  1  0  0  0  0
 24 25  1  0  0  0  0
  9 26  1  0  0  0  0
 26 27  1  0  0  0  0
  1 28  1  0  0  0  0
  1 29  1  0  0  0  0
  1 30  1  0  0  0  0
  2 31  1  0  0  0  0
  2 32  1  0  0  0  0
  3 33  1  0  0  0  0
  3 34  1  0  0  0  0
  4 35  1  0  0  0  0
  4 36  1  0  0  0  0
  5 37  1  0  0  0  0
  5 38  1  0  0  0  0
  6 39  1  0  0  0  0
  6 40  1  0  0  0  0
  7 41  1  0  0  0  0
  7 42  1  0  0  0  0
  8 43  1  0  0  0  0
  8 44  1  0  0  0  0
 10 45  1  0  0  0  0
 10 46  1  0  0  0  0
 11 47  1  0  0  0  0
 11 48  1  0  0  0  0
 12 49  1  0  0  0  0
 12 50  1  0  0  0  0
 13 51  1  0  0  0  0
 13 52  1  0  0  0  0
 14 53  1  0  0  0  0
 14 54  1  0  0  0  0
 15 55  1  0  0  0  0
 15 56  1  0  0  0  0
 16 57  1  0  0  0  0
 16 58  1  0  0  0  0
 17 59  1  0  0  0  0
 17 60  1  0  0  0  0
 17 61  1  0  0  0  0
 18 62  1  0  0  0  0
 18 63  1  0  0  0  0
 19 64  1  0  0  0  0
 19 65  1  0  0  0  0
 20 66  1  0  0  0  0
 20 67  1  0  0  0  0
 21 68  1  0  0  0  0
 21 69  1  0  0  0  0
 22 70  1  0  0  0  0
 22 71  1  0  0  0  0
 23 72  1  0  0  0  0
 23 73  1  0  0  0  0
 24 74  1  0  0  0  0
 24 75  1  0  0  0  0
 25 76  1  0  0  0  0
 25 77  1  0  0  0  0
 25 78  1  0  0  0  0
 26 79  1  0  0  0  0
 26 80  1  0  0  0  0
 27 81  1  0  0  0  0
 27 82  1  0  0  0  0
 27 83  1  0  0  0  0
M  CHG  1   1   1
M  END
