30

C          1.34585       -0.37232        0.56314
C          0.75483        0.51679        1.64723
C          0.94218        2.01350        1.38134
C          0.22584        2.55772        0.14608
N         -1.23451        2.72363        0.40384
C         -2.04876        1.69880        0.04702
C         -3.42169        1.77302        0.19620
C         -3.98245        2.93290        0.69666
C         -3.16115        4.00571        1.04824
C         -1.75379        3.88098        0.92706
C         -0.85607        5.03556        1.29515
C         -3.80758        5.26452        1.56915
H          0.80732       -0.26973       -0.38290
H          1.28479       -1.42295        0.86482
H          2.39958       -0.13218        0.38904
H         -0.30448        0.27817        1.78560
H          1.25151        0.27456        2.59491
H          0.61677        2.55842        2.27472
H          2.01567        2.21007        1.26944
H          0.62583        3.53340       -0.14720
H          0.34799        1.91277       -0.72999
H         -1.58441        0.80650       -0.36482
H         -4.05448        0.93533       -0.08856
H         -5.06548        3.00088        0.80229
H         -0.72273        5.68783        0.42692
H         -1.27422        5.62428        2.11707
H          0.12418        4.70589        1.64445
H         -4.89340        5.24693        1.42538
H         -3.61168        5.37416        2.64022
H         -3.42929        6.14090        1.03293
