48

C          1.73872       -0.92334        0.75610
O          0.70538       -0.96592       -0.22126
C          1.01677       -1.52537       -1.42775
C          0.05470       -1.34084       -2.42141
C          0.24926       -1.84992       -3.70717
C          1.41338       -2.56663       -4.01825
C          2.36830       -2.76509       -3.01065
C          2.17221       -2.24550       -1.72497
C          1.62409       -3.11215       -5.40619
N          1.35295       -4.55747       -5.42181
C          0.11053       -5.12697       -5.18938
C          0.24185       -6.46276       -5.41193
N          1.54931       -6.67510       -5.81812
C          2.25814       -5.52596       -5.68949
C          3.73496       -5.34553       -5.83413
C          2.08798       -7.97133       -6.28153
C          2.68807       -7.86372       -7.67434
O          3.86832       -7.53596       -7.82169
C          1.84047       -8.09008       -8.87967
C          2.48397       -8.23536      -10.11621
C          1.74205       -8.41796      -11.28514
C          0.34517       -8.44105      -11.23929
C         -0.29692       -8.31200      -10.00286
C          0.44332       -8.13237       -8.82897
C         -0.45009       -8.65988      -12.49395
H          1.36342       -0.35898        1.61515
H          2.62387       -0.40247        0.37548
H          1.99147       -1.93059        1.10226
H         -0.84952       -0.78007       -2.19125
H         -0.51683       -1.66691       -4.45812
H          3.28436       -3.31540       -3.21059
H          2.93960       -2.41942       -0.97670
H          0.94639       -2.63705       -6.12576
H          2.64167       -2.90384       -5.74922
H         -0.71605       -4.50056       -4.90001
H         -0.44411       -7.29130       -5.36320
H          4.22304       -6.28811       -5.58853
H          3.92307       -5.03554       -6.86218
H          4.05285       -4.58103       -5.12568
H          2.86801       -8.28990       -5.58108
H          1.31052       -8.74062       -6.25099
H          3.57104       -8.20917      -10.18478
H          2.26312       -8.53704      -12.23410
H         -1.38448       -8.34543       -9.95247
H         -0.10900       -8.01754       -7.90442
H          0.05675       -8.21739      -13.35807
H         -0.58360       -9.73143      -12.67048
H         -1.43523       -8.18743      -12.41942
