 xtb: 6.7.1 (edcfbbe)
          12202402133D

 25 25  0     0  0            999 V2000
    1.1271    0.2354   -0.2003 C   0  0  0  0  0  0  0  0  0  0  0  0
    0.0293    0.4961   -0.3781 N   0  0  0  0  0  0  0  0  0  0  0  0
    2.5385   -0.0272   -0.0570 C   0  0  0  0  0  0  0  0  0  0  0  0
    3.1738   -0.4210   -1.3994 C   0  0  0  0  0  0  0  0  0  0  0  0
    2.7558    0.4909   -2.5621 C   0  0  0  0  0  0  0  0  0  0  0  0
    3.1063    1.8823   -2.3233 N   0  0  0  0  0  0  0  0  0  0  0  0
    2.1733    2.7650   -1.9415 C   0  0  0  0  0  0  0  0  0  0  0  0
    2.4974    4.0746   -1.6739 C   0  0  0  0  0  0  0  0  0  0  0  0
    3.8181    4.5176   -1.7968 C   0  0  0  0  0  0  0  0  0  0  0  0
    4.7642    3.5687   -2.2047 C   0  0  0  0  0  0  0  0  0  0  0  0
    4.3822    2.2747   -2.4584 C   0  0  0  0  0  0  0  0  0  0  0  0
    4.1981    5.9217   -1.5319 C   0  0  0  0  0  0  0  0  0  0  0  0
    3.0091    0.8708    0.3565 H   0  0  0  0  0  0  0  0  0  0  0  0
    2.6732   -0.8361    0.6645 H   0  0  0  0  0  0  0  0  0  0  0  0
    4.2594   -0.4214   -1.2871 H   0  0  0  0  0  0  0  0  0  0  0  0
    2.8643   -1.4333   -1.6628 H   0  0  0  0  0  0  0  0  0  0  0  0
    3.2515    0.1550   -3.4760 H   0  0  0  0  0  0  0  0  0  0  0  0
    1.6758    0.4236   -2.7070 H   0  0  0  0  0  0  0  0  0  0  0  0
    1.1585    2.4065   -1.8431 H   0  0  0  0  0  0  0  0  0  0  0  0
    1.7187    4.7561   -1.3690 H   0  0  0  0  0  0  0  0  0  0  0  0
    5.7989    3.8492   -2.3254 H   0  0  0  0  0  0  0  0  0  0  0  0
    5.0947    1.5292   -2.7798 H   0  0  0  0  0  0  0  0  0  0  0  0
    4.2244    6.4711   -2.4750 H   0  0  0  0  0  0  0  0  0  0  0  0
    3.4792    6.4138   -0.8828 H   0  0  0  0  0  0  0  0  0  0  0  0
    5.1926    5.9856   -1.0962 H   0  0  0  0  0  0  0  0  0  0  0  0
  1  2  3  0  0  0  0
  1  3  1  0  0  0  0
  3  4  1  0  0  0  0
  4  5  1  0  0  0  0
  5  6  1  0  0  0  0
  6  7  4  0  0  0  0
  7  8  4  0  0  0  0
  8  9  4  0  0  0  0
  9 10  4  0  0  0  0
  6 11  4  0  0  0  0
 10 11  2  0  0  0  0
  9 12  1  0  0  0  0
  3 13  1  0  0  0  0
  3 14  1  0  0  0  0
  4 15  1  0  0  0  0
  4 16  1  0  0  0  0
  5 17  1  0  0  0  0
  5 18  1  0  0  0  0
  7 19  1  0  0  0  0
  8 20  1  0  0  0  0
 10 21  1  0  0  0  0
 11 22  1  0  0  0  0
 12 23  1  0  0  0  0
 12 24  1  0  0  0  0
 12 25  1  0  0  0  0
M  CHG  1   1   1
M  END
