 xtb: 6.7.1 (edcfbbe)
          12202402123D

 95 94  0     0  0            999 V2000
    0.5289   -0.6139    0.7943 C   0  0  0  0  0  0  0  0  0  0  0  0
   -0.7079   -1.0584    0.0093 C   0  0  0  0  0  0  0  0  0  0  0  0
   -0.4758   -2.4007   -0.6905 C   0  0  0  0  0  0  0  0  0  0  0  0
   -0.2900   -3.5641    0.2765 C   0  0  0  0  0  0  0  0  0  0  0  0
    0.3701    1.0182    1.5996 P   0  0  0  0  0  0  0  0  0  0  0  0
    0.7939    2.3724    0.4394 C   0  0  0  0  0  0  0  0  0  0  0  0
    0.1661    2.3880   -0.9565 C   0  0  0  0  0  0  0  0  0  0  0  0
   -1.3403    2.6429   -1.0090 C   0  0  0  0  0  0  0  0  0  0  0  0
   -1.8081    3.9177   -0.3054 C   0  0  0  0  0  0  0  0  0  0  0  0
   -1.2101    5.2134   -0.8575 C   0  0  0  0  0  0  0  0  0  0  0  0
   -1.5470    5.5043   -2.3216 C   0  0  0  0  0  0  0  0  0  0  0  0
   -3.0428    5.5743   -2.6388 C   0  0  0  0  0  0  0  0  0  0  0  0
   -3.8389    6.5669   -1.7892 C   0  0  0  0  0  0  0  0  0  0  0  0
   -3.3750    8.0208   -1.8903 C   0  0  0  0  0  0  0  0  0  0  0  0
   -3.4946    8.6407   -3.2836 C   0  0  0  0  0  0  0  0  0  0  0  0
   -4.9099    8.6550   -3.8653 C   0  0  0  0  0  0  0  0  0  0  0  0
   -5.9611    9.3461   -2.9943 C   0  0  0  0  0  0  0  0  0  0  0  0
   -5.6632   10.8084   -2.6584 C   0  0  0  0  0  0  0  0  0  0  0  0
   -5.5554   11.7398   -3.8670 C   0  0  0  0  0  0  0  0  0  0  0  0
   -6.8112   11.8172   -4.7374 C   0  0  0  0  0  0  0  0  0  0  0  0
   -8.0816   12.2558   -4.0055 C   0  0  0  0  0  0  0  0  0  0  0  0
   -7.9951   13.6208   -3.3212 C   0  0  0  0  0  0  0  0  0  0  0  0
   -7.7507   14.7674   -4.2946 C   0  0  0  0  0  0  0  0  0  0  0  0
   -1.3070    1.2495    2.2898 C   0  0  0  0  0  0  0  0  0  0  0  0
   -1.7320    0.2109    3.3390 C   0  0  0  0  0  0  0  0  0  0  0  0
   -1.5105    0.6772    4.7799 C   0  0  0  0  0  0  0  0  0  0  0  0
   -2.4969    1.7591    5.2045 C   0  0  0  0  0  0  0  0  0  0  0  0
    1.6221    1.2099    2.9269 C   0  0  0  0  0  0  0  0  0  0  0  0
    1.9021   -0.0351    3.7791 C   0  0  0  0  0  0  0  0  0  0  0  0
    3.0947   -0.8470    3.2651 C   0  0  0  0  0  0  0  0  0  0  0  0
    4.4316   -0.1896    3.5877 C   0  0  0  0  0  0  0  0  0  0  0  0
    1.3982   -0.5571    0.1310 H   0  0  0  0  0  0  0  0  0  0  0  0
    0.7496   -1.3446    1.5754 H   0  0  0  0  0  0  0  0  0  0  0  0
   -1.5597   -1.1573    0.6850 H   0  0  0  0  0  0  0  0  0  0  0  0
   -0.9600   -0.3136   -0.7466 H   0  0  0  0  0  0  0  0  0  0  0  0
   -1.3432   -2.6035   -1.3203 H   0  0  0  0  0  0  0  0  0  0  0  0
    0.3947   -2.3259   -1.3451 H   0  0  0  0  0  0  0  0  0  0  0  0
   -1.1175   -3.6152    0.9805 H   0  0  0  0  0  0  0  0  0  0  0  0
   -0.2610   -4.4988   -0.2759 H   0  0  0  0  0  0  0  0  0  0  0  0
    0.6403   -3.4824    0.8336 H   0  0  0  0  0  0  0  0  0  0  0  0
    0.5861    3.3106    0.9616 H   0  0  0  0  0  0  0  0  0  0  0  0
    1.8812    2.2987    0.3213 H   0  0  0  0  0  0  0  0  0  0  0  0
    0.6701    3.1756   -1.5194 H   0  0  0  0  0  0  0  0  0  0  0  0
    0.3857    1.4467   -1.4650 H   0  0  0  0  0  0  0  0  0  0  0  0
   -1.6275    2.6971   -2.0596 H   0  0  0  0  0  0  0  0  0  0  0  0
   -1.8731    1.7899   -0.5806 H   0  0  0  0  0  0  0  0  0  0  0  0
   -2.8938    3.9671   -0.3919 H   0  0  0  0  0  0  0  0  0  0  0  0
   -1.5798    3.8571    0.7626 H   0  0  0  0  0  0  0  0  0  0  0  0
   -1.5734    6.0378   -0.2424 H   0  0  0  0  0  0  0  0  0  0  0  0
   -0.1225    5.1944   -0.7509 H   0  0  0  0  0  0  0  0  0  0  0  0
   -1.0822    6.4547   -2.5881 H   0  0  0  0  0  0  0  0  0  0  0  0
   -1.0955    4.7417   -2.9609 H   0  0  0  0  0  0  0  0  0  0  0  0
   -3.1501    5.8404   -3.6913 H   0  0  0  0  0  0  0  0  0  0  0  0
   -3.4880    4.5835   -2.5170 H   0  0  0  0  0  0  0  0  0  0  0  0
   -4.8856    6.5056   -2.0913 H   0  0  0  0  0  0  0  0  0  0  0  0
   -3.7949    6.2649   -0.7398 H   0  0  0  0  0  0  0  0  0  0  0  0
   -3.9634    8.6126   -1.1868 H   0  0  0  0  0  0  0  0  0  0  0  0
   -2.3326    8.0930   -1.5712 H   0  0  0  0  0  0  0  0  0  0  0  0
   -3.1212    9.6651   -3.2294 H   0  0  0  0  0  0  0  0  0  0  0  0
   -2.8445    8.1027   -3.9775 H   0  0  0  0  0  0  0  0  0  0  0  0
   -4.8701    9.1489   -4.8379 H   0  0  0  0  0  0  0  0  0  0  0  0
   -5.2371    7.6282   -4.0454 H   0  0  0  0  0  0  0  0  0  0  0  0
   -6.9211    9.2865   -3.5106 H   0  0  0  0  0  0  0  0  0  0  0  0
   -6.0712    8.7957   -2.0570 H   0  0  0  0  0  0  0  0  0  0  0  0
   -6.4524   11.1720   -1.9974 H   0  0  0  0  0  0  0  0  0  0  0  0
   -4.7276   10.8666   -2.0977 H   0  0  0  0  0  0  0  0  0  0  0  0
   -5.3103   12.7398   -3.5034 H   0  0  0  0  0  0  0  0  0  0  0  0
   -4.7227   11.4189   -4.4969 H   0  0  0  0  0  0  0  0  0  0  0  0
   -6.6139   12.5110   -5.5569 H   0  0  0  0  0  0  0  0  0  0  0  0
   -6.9984   10.8399   -5.1880 H   0  0  0  0  0  0  0  0  0  0  0  0
   -8.8970   12.2834   -4.7331 H   0  0  0  0  0  0  0  0  0  0  0  0
   -8.3440   11.5059   -3.2562 H   0  0  0  0  0  0  0  0  0  0  0  0
   -8.9391   13.7976   -2.7994 H   0  0  0  0  0  0  0  0  0  0  0  0
   -7.2061   13.6091   -2.5673 H   0  0  0  0  0  0  0  0  0  0  0  0
   -8.5062   14.7694   -5.0772 H   0  0  0  0  0  0  0  0  0  0  0  0
   -7.7965   15.7207   -3.7729 H   0  0  0  0  0  0  0  0  0  0  0  0
   -6.7723   14.6846   -4.7605 H   0  0  0  0  0  0  0  0  0  0  0  0
   -1.3364    2.2554    2.7167 H   0  0  0  0  0  0  0  0  0  0  0  0
   -1.9955    1.2378    1.4430 H   0  0  0  0  0  0  0  0  0  0  0  0
   -2.7964    0.0046    3.2123 H   0  0  0  0  0  0  0  0  0  0  0  0
   -1.2027   -0.7303    3.1725 H   0  0  0  0  0  0  0  0  0  0  0  0
   -1.6346   -0.1826    5.4400 H   0  0  0  0  0  0  0  0  0  0  0  0
   -0.4903    1.0428    4.9052 H   0  0  0  0  0  0  0  0  0  0  0  0
   -3.5184    1.3974    5.1204 H   0  0  0  0  0  0  0  0  0  0  0  0
   -2.3207    2.0365    6.2398 H   0  0  0  0  0  0  0  0  0  0  0  0
   -2.4022    2.6569    4.5977 H   0  0  0  0  0  0  0  0  0  0  0  0
    2.5494    1.5416    2.4531 H   0  0  0  0  0  0  0  0  0  0  0  0
    1.2655    2.0389    3.5460 H   0  0  0  0  0  0  0  0  0  0  0  0
    2.1226    0.2802    4.8002 H   0  0  0  0  0  0  0  0  0  0  0  0
    1.0166   -0.6711    3.8277 H   0  0  0  0  0  0  0  0  0  0  0  0
    3.0712   -1.8316    3.7346 H   0  0  0  0  0  0  0  0  0  0  0  0
    3.0139   -0.9912    2.1853 H   0  0  0  0  0  0  0  0  0  0  0  0
    4.5509   -0.0785    4.6623 H   0  0  0  0  0  0  0  0  0  0  0  0
    5.2477   -0.8042    3.2185 H   0  0  0  0  0  0  0  0  0  0  0  0
    4.5197    0.7938    3.1313 H   0  0  0  0  0  0  0  0  0  0  0  0
  1  2  1  0  0  0  0
  2  3  1  0  0  0  0
  3  4  1  0  0  0  0
  1  5  1  0  0  0  0
  5  6  1  0  0  0  0
  6  7  1  0  0  0  0
  7  8  1  0  0  0  0
  8  9  1  0  0  0  0
  9 10  1  0  0  0  0
 10 11  1  0  0  0  0
 11 12  1  0  0  0  0
 12 13  1  0  0  0  0
 13 14  1  0  0  0  0
 14 15  1  0  0  0  0
 15 16  1  0  0  0  0
 16 17  1  0  0  0  0
 17 18  1  0  0  0  0
 18 19  1  0  0  0  0
 19 20  1  0  0  0  0
 20 21  1  0  0  0  0
 21 22  1  0  0  0  0
 22 23  1  0  0  0  0
  5 24  1  0  0  0  0
 24 25  1  0  0  0  0
 25 26  1  0  0  0  0
 26 27  1  0  0  0  0
  5 28  1  0  0  0  0
 28 29  1  0  0  0  0
 29 30  1  0  0  0  0
 30 31  1  0  0  0  0
  1 32  1  0  0  0  0
  1 33  1  0  0  0  0
  2 34  1  0  0  0  0
  2 35  1  0  0  0  0
  3 36  1  0  0  0  0
  3 37  1  0  0  0  0
  4 38  1  0  0  0  0
  4 39  1  0  0  0  0
  4 40  1  0  0  0  0
  6 41  1  0  0  0  0
  6 42  1  0  0  0  0
  7 43  1  0  0  0  0
  7 44  1  0  0  0  0
  8 45  1  0  0  0  0
  8 46  1  0  0  0  0
  9 47  1  0  0  0  0
  9 48  1  0  0  0  0
 10 49  1  0  0  0  0
 10 50  1  0  0  0  0
 11 51  1  0  0  0  0
 11 52  1  0  0  0  0
 12 53  1  0  0  0  0
 12 54  1  0  0  0  0
 13 55  1  0  0  0  0
 13 56  1  0  0  0  0
 14 57  1  0  0  0  0
 14 58  1  0  0  0  0
 15 59  1  0  0  0  0
 15 60  1  0  0  0  0
 16 61  1  0  0  0  0
 16 62  1  0  0  0  0
 17 63  1  0  0  0  0
 17 64  1  0  0  0  0
 18 65  1  0  0  0  0
 18 66  1  0  0  0  0
 19 67  1  0  0  0  0
 19 68  1  0  0  0  0
 20 69  1  0  0  0  0
 20 70  1  0  0  0  0
 21 71  1  0  0  0  0
 21 72  1  0  0  0  0
 22 73  1  0  0  0  0
 22 74  1  0  0  0  0
 23 75  1  0  0  0  0
 23 76  1  0  0  0  0
 23 77  1  0  0  0  0
 24 78  1  0  0  0  0
 24 79  1  0  0  0  0
 25 80  1  0  0  0  0
 25 81  1  0  0  0  0
 26 82  1  0  0  0  0
 26 83  1  0  0  0  0
 27 84  1  0  0  0  0
 27 85  1  0  0  0  0
 27 86  1  0  0  0  0
 28 87  1  0  0  0  0
 28 88  1  0  0  0  0
 29 89  1  0  0  0  0
 29 90  1  0  0  0  0
 30 91  1  0  0  0  0
 30 92  1  0  0  0  0
 31 93  1  0  0  0  0
 31 94  1  0  0  0  0
 31 95  1  0  0  0  0
M  CHG  1   1   1
M  END
