25

C          1.05580       -0.06837       -0.04703
N         -0.20517       -0.06837       -0.04703
C          2.57580       -0.06837       -0.04703
C          3.13044       -0.41774       -1.42841
C          2.69717        0.51555       -2.56190
N          3.09933        1.91848       -2.29299
C          2.15186        2.85384       -2.04004
C          2.50882        4.17614       -1.79736
C          3.85239        4.54611       -1.81249
C          4.80664        3.57607       -2.11198
C          4.40695        2.26716       -2.35533
C          4.25905        5.97400       -1.58459
H          2.93446        0.91309        0.28069
H          2.92555       -0.80471        0.68525
H          4.22487       -0.43513       -1.36343
H          2.82114       -1.43702       -1.69282
H          3.17919        0.22761       -3.50381
H          1.61541        0.48234       -2.72659
H          1.11077        2.53975       -2.03429
H          1.73318        4.91488       -1.59942
H          5.86297        3.83640       -2.16160
H          5.12690        1.49088       -2.59977
H          4.31040        6.50526       -2.53989
H          3.54282        6.48535       -0.93296
H          5.23776        6.02570       -1.09594
