25

C          1.26618        0.42000       -0.08628
C          0.25202        0.57224       -1.20323
N          0.68830       -0.11760       -2.41796
C          1.31448        0.48331       -3.44040
N          1.56470       -0.42844       -4.38970
C          2.22794       -0.14441       -5.65383
C          1.09383       -1.66916       -3.97390
C          1.11745       -2.91763       -4.58980
C          0.54121       -3.97101       -3.86620
C         -0.02728       -3.77203       -2.59262
C         -0.04695       -2.51034       -1.98167
C          0.52844       -1.47039       -2.70749
H          1.39842       -0.63252        0.18318
H          0.93928        0.96400        0.80481
H          2.24232        0.80982       -0.39191
H         -0.72259        0.17528       -0.90031
H          0.11277        1.63267       -1.44174
H          1.57345        1.53453       -3.49015
H          3.14432       -0.73685       -5.72058
H          1.55595       -0.39896       -6.47785
H          2.48086        0.91772       -5.71142
H          1.55569       -3.06593       -5.56863
H          0.53194       -4.97243       -4.29859
H         -0.46284       -4.62423       -2.06918
H         -0.48181       -2.35513       -1.00243
