46

C          2.48671       -0.57723        0.04999
C          1.00799       -0.33167       -0.02347
C          0.14483       -1.34285       -0.45297
C         -1.23524       -1.12817       -0.49369
C         -1.78807        0.09779       -0.08668
C         -0.91245        1.11097        0.33622
C          0.46812        0.89298        0.37745
C         -3.30699        0.28392       -0.13744
C         -3.75446        0.83105       -1.48466
C         -4.44114       -0.00553       -2.38088
C         -4.89296        0.47934       -3.61060
C         -4.65712        1.80626       -3.97840
C         -3.94267        2.63460       -3.10749
C         -3.49235        2.15302       -1.87547
C         -5.11730        2.33287       -5.30664
C         -3.82830        1.08914        1.09338
N         -5.35551        1.01857        1.40147
C         -5.84804       -0.41631        1.51453
C         -5.57561        1.70788        2.75432
C         -6.18627        1.76440        0.36085
H          2.73633       -1.07468        0.99228
H          2.81734       -1.20556       -0.78364
H          3.04567        0.36258       -0.00962
H          0.54523       -2.30495       -0.76798
H         -1.87112       -1.93478       -0.85388
H         -1.27220        2.09217        0.63258
H          1.12561        1.69217        0.71581
H         -3.72057       -0.72685       -0.03022
H         -4.63001       -1.04960       -2.13833
H         -5.41927       -0.19150       -4.28766
H         -3.71619        3.65979       -3.39704
H         -2.91709        2.82577       -1.24412
H         -5.74450        1.60460       -5.83128
H         -5.71130        3.24199       -5.16707
H         -4.25472        2.55939       -5.94115
H         -3.33963        0.70483        1.99871
H         -3.58701        2.15604        1.01537
H         -5.19775       -0.95152        2.21214
H         -6.87750       -0.40067        1.88551
H         -5.82497       -0.88038        0.52555
H         -5.22672        2.74170        2.67449
H         -6.64367        1.68175        2.99068
H         -5.00689        1.16566        3.51566
H         -7.20637        1.86544        0.74509
H         -5.74430        2.75189        0.20354
H         -6.21532        1.18411       -0.56069
