 xtb: 6.7.1 (edcfbbe)
          12202402133D

 25 26  0     0  0            999 V2000
    0.5468   -0.1111    0.0237 C   0  0  0  0  0  0  0  0  0  0  0  0
    0.4431   -1.1583   -0.9553 N   0  0  0  0  0  0  0  0  0  0  0  0
    0.8640   -2.4469   -0.7782 C   0  0  0  0  0  0  0  0  0  0  0  0
    0.6015   -3.1245   -1.9272 C   0  0  0  0  0  0  0  0  0  0  0  0
    0.0184   -2.2389   -2.7909 N   0  0  0  0  0  0  0  0  0  0  0  0
   -0.0539   -1.0532   -2.1762 C   0  0  0  0  0  0  0  0  0  0  0  0
   -0.3437   -2.4180   -4.2112 C   0  0  0  0  0  0  0  0  0  0  0  0
   -0.3084   -1.4365   -4.8896 O   0  0  0  0  0  0  0  0  0  0  0  0
   -0.6824   -3.7734   -4.6089 C   0  0  0  0  0  0  0  0  0  0  0  0
   -0.4397   -4.1234   -5.9441 C   0  0  0  0  0  0  0  0  0  0  0  0
   -0.7541   -5.3891   -6.3952 C   0  0  0  0  0  0  0  0  0  0  0  0
   -1.3381   -6.3071   -5.5339 C   0  0  0  0  0  0  0  0  0  0  0  0
   -1.6170   -5.9546   -4.2202 C   0  0  0  0  0  0  0  0  0  0  0  0
   -1.2899   -4.6980   -3.7507 C   0  0  0  0  0  0  0  0  0  0  0  0
   -0.0073   -0.3816    0.9232 H   0  0  0  0  0  0  0  0  0  0  0  0
    0.1447    0.8154   -0.3795 H   0  0  0  0  0  0  0  0  0  0  0  0
    1.5920    0.0417    0.2956 H   0  0  0  0  0  0  0  0  0  0  0  0
    1.3156   -2.7834    0.1332 H   0  0  0  0  0  0  0  0  0  0  0  0
    0.8069   -4.1413   -2.1928 H   0  0  0  0  0  0  0  0  0  0  0  0
   -0.4577   -0.1673   -2.6302 H   0  0  0  0  0  0  0  0  0  0  0  0
    0.0108   -3.3941   -6.5995 H   0  0  0  0  0  0  0  0  0  0  0  0
   -0.5515   -5.6595   -7.4194 H   0  0  0  0  0  0  0  0  0  0  0  0
   -1.5906   -7.2941   -5.8888 H   0  0  0  0  0  0  0  0  0  0  0  0
   -2.0981   -6.6620   -3.5630 H   0  0  0  0  0  0  0  0  0  0  0  0
   -1.5531   -4.4217   -2.7400 H   0  0  0  0  0  0  0  0  0  0  0  0
  1  2  1  0  0  0  0
  2  3  4  0  0  0  0
  3  4  2  0  0  0  0
  4  5  4  0  0  0  0
  2  6  4  0  0  0  0
  5  6  4  0  0  0  0
  5  7  1  0  0  0  0
  7  8  2  0  0  0  0
  7  9  1  0  0  0  0
  9 10  4  0  0  0  0
 10 11  4  0  0  0  0
 11 12  4  0  0  0  0
 12 13  4  0  0  0  0
  9 14  4  0  0  0  0
 13 14  4  0  0  0  0
  1 15  1  0  0  0  0
  1 16  1  0  0  0  0
  1 17  1  0  0  0  0
  3 18  1  0  0  0  0
  4 19  1  0  0  0  0
  6 20  1  0  0  0  0
 10 21  1  0  0  0  0
 11 22  1  0  0  0  0
 12 23  1  0  0  0  0
 13 24  1  0  0  0  0
 14 25  1  0  0  0  0
M  CHG  1   1   1
M  END
