 xtb: 6.7.1 (edcfbbe)
          12202402133D

100100  0     0  0            999 V2000
   -0.4482    1.5645   -0.5251 C   0  0  0  0  0  0  0  0  0  0  0  0
   -1.0397    0.3342    0.1520 C   0  0  0  0  0  0  0  0  0  0  0  0
   -0.0931   -0.3115    1.1651 C   0  0  0  0  0  0  0  0  0  0  0  0
    0.2926    0.5786    2.3486 C   0  0  0  0  0  0  0  0  0  0  0  0
   -0.8808    1.0806    3.1921 C   0  0  0  0  0  0  0  0  0  0  0  0
   -1.7611   -0.0168    3.7935 C   0  0  0  0  0  0  0  0  0  0  0  0
   -1.0280   -1.0112    4.6957 C   0  0  0  0  0  0  0  0  0  0  0  0
   -0.3191   -0.3911    5.9010 C   0  0  0  0  0  0  0  0  0  0  0  0
   -1.2264    0.3862    6.8566 C   0  0  0  0  0  0  0  0  0  0  0  0
   -2.3801   -0.4242    7.4518 C   0  0  0  0  0  0  0  0  0  0  0  0
   -1.9569   -1.6774    8.2219 C   0  0  0  0  0  0  0  0  0  0  0  0
   -0.9892   -1.4319    9.3816 C   0  0  0  0  0  0  0  0  0  0  0  0
   -1.4813   -0.4478   10.4514 C   0  0  0  0  0  0  0  0  0  0  0  0
   -2.6890   -1.0212   11.1850 C   0  0  0  0  0  0  0  0  0  0  0  0
   -3.3415   -0.1266   12.1953 N   0  0  0  0  0  0  0  0  0  0  0  0
   -4.4729   -0.8888   12.7928 C   0  0  0  0  0  0  0  0  0  0  0  0
   -4.4750   -1.2098   14.1429 C   0  0  0  0  0  0  0  0  0  0  0  0
   -5.5168   -1.9176   14.7164 C   0  0  0  0  0  0  0  0  0  0  0  0
   -6.5822   -2.3171   13.9346 C   0  0  0  0  0  0  0  0  0  0  0  0
   -6.5955   -2.0155   12.5876 C   0  0  0  0  0  0  0  0  0  0  0  0
   -5.5547   -1.3070   11.9882 C   0  0  0  0  0  0  0  0  0  0  0  0
   -5.5412   -1.0124   10.6630 O   0  0  0  0  0  0  0  0  0  0  0  0
   -6.5577   -1.5498    9.8130 C   0  0  0  0  0  0  0  0  0  0  0  0
   -6.2662   -1.1540    8.3654 C   0  0  0  0  0  0  0  0  0  0  0  0
   -6.8755    0.1879    7.9574 C   0  0  0  0  0  0  0  0  0  0  0  0
   -6.2520    1.3734    8.6880 C   0  0  0  0  0  0  0  0  0  0  0  0
   -6.8267    2.7227    8.2552 C   0  0  0  0  0  0  0  0  0  0  0  0
   -8.2825    2.9581    8.6635 C   0  0  0  0  0  0  0  0  0  0  0  0
   -8.5602    2.8702   10.1664 C   0  0  0  0  0  0  0  0  0  0  0  0
   -7.7164    3.8034   11.0377 C   0  0  0  0  0  0  0  0  0  0  0  0
   -7.8555    5.2912   10.7087 C   0  0  0  0  0  0  0  0  0  0  0  0
   -9.2747    5.8503   10.8248 C   0  0  0  0  0  0  0  0  0  0  0  0
   -9.9096    5.7224   12.2105 C   0  0  0  0  0  0  0  0  0  0  0  0
   -9.1482    6.4767   13.2943 C   0  0  0  0  0  0  0  0  0  0  0  0
   -3.8763    1.1057   11.5781 C   0  0  0  0  0  0  0  0  0  0  0  0
   -2.3421    0.2865   13.1980 C   0  0  0  0  0  0  0  0  0  0  0  0
   -0.2975    2.3717    0.1874 H   0  0  0  0  0  0  0  0  0  0  0  0
   -1.1166    1.9233   -1.3046 H   0  0  0  0  0  0  0  0  0  0  0  0
    0.5098    1.3235   -0.9807 H   0  0  0  0  0  0  0  0  0  0  0  0
   -1.9791    0.6030    0.6388 H   0  0  0  0  0  0  0  0  0  0  0  0
   -1.2733   -0.4102   -0.6133 H   0  0  0  0  0  0  0  0  0  0  0  0
   -0.5527   -1.2298    1.5369 H   0  0  0  0  0  0  0  0  0  0  0  0
    0.8256   -0.5979    0.6469 H   0  0  0  0  0  0  0  0  0  0  0  0
    0.9825    0.0194    2.9847 H   0  0  0  0  0  0  0  0  0  0  0  0
    0.8386    1.4478    1.9773 H   0  0  0  0  0  0  0  0  0  0  0  0
   -0.4815    1.7059    3.9943 H   0  0  0  0  0  0  0  0  0  0  0  0
   -1.5143    1.7223    2.5768 H   0  0  0  0  0  0  0  0  0  0  0  0
   -2.5661    0.4611    4.3576 H   0  0  0  0  0  0  0  0  0  0  0  0
   -2.2316   -0.5789    2.9849 H   0  0  0  0  0  0  0  0  0  0  0  0
   -1.7481   -1.7574    5.0405 H   0  0  0  0  0  0  0  0  0  0  0  0
   -0.2811   -1.5434    4.1045 H   0  0  0  0  0  0  0  0  0  0  0  0
    0.1875   -1.1892    6.4484 H   0  0  0  0  0  0  0  0  0  0  0  0
    0.4560    0.2902    5.5465 H   0  0  0  0  0  0  0  0  0  0  0  0
   -0.6081    0.7907    7.6618 H   0  0  0  0  0  0  0  0  0  0  0  0
   -1.6539    1.2387    6.3262 H   0  0  0  0  0  0  0  0  0  0  0  0
   -2.9624    0.2340    8.1040 H   0  0  0  0  0  0  0  0  0  0  0  0
   -3.0445   -0.7353    6.6440 H   0  0  0  0  0  0  0  0  0  0  0  0
   -2.8537   -2.1864    8.5854 H   0  0  0  0  0  0  0  0  0  0  0  0
   -1.4704   -2.3657    7.5307 H   0  0  0  0  0  0  0  0  0  0  0  0
   -0.7652   -2.3898    9.8561 H   0  0  0  0  0  0  0  0  0  0  0  0
   -0.0531   -1.0440    8.9807 H   0  0  0  0  0  0  0  0  0  0  0  0
   -0.6530   -0.2751   11.1397 H   0  0  0  0  0  0  0  0  0  0  0  0
   -1.7320    0.4950    9.9676 H   0  0  0  0  0  0  0  0  0  0  0  0
   -3.4513   -1.2765   10.4510 H   0  0  0  0  0  0  0  0  0  0  0  0
   -2.3953   -1.9325   11.7123 H   0  0  0  0  0  0  0  0  0  0  0  0
   -3.6648   -0.9218   14.7885 H   0  0  0  0  0  0  0  0  0  0  0  0
   -5.4858   -2.1499   15.7677 H   0  0  0  0  0  0  0  0  0  0  0  0
   -7.4033   -2.8665   14.3655 H   0  0  0  0  0  0  0  0  0  0  0  0
   -7.4325   -2.3374   11.9923 H   0  0  0  0  0  0  0  0  0  0  0  0
   -6.5538   -2.6415    9.9121 H   0  0  0  0  0  0  0  0  0  0  0  0
   -7.5378   -1.1650   10.1152 H   0  0  0  0  0  0  0  0  0  0  0  0
   -5.1854   -1.1339    8.2151 H   0  0  0  0  0  0  0  0  0  0  0  0
   -6.6763   -1.9325    7.7213 H   0  0  0  0  0  0  0  0  0  0  0  0
   -6.7326    0.3187    6.8835 H   0  0  0  0  0  0  0  0  0  0  0  0
   -7.9493    0.1596    8.1463 H   0  0  0  0  0  0  0  0  0  0  0  0
   -6.3985    1.2552    9.7622 H   0  0  0  0  0  0  0  0  0  0  0  0
   -5.1767    1.3777    8.4848 H   0  0  0  0  0  0  0  0  0  0  0  0
   -6.2060    3.5153    8.6774 H   0  0  0  0  0  0  0  0  0  0  0  0
   -6.7571    2.8023    7.1682 H   0  0  0  0  0  0  0  0  0  0  0  0
   -8.5751    3.9460    8.3058 H   0  0  0  0  0  0  0  0  0  0  0  0
   -8.9232    2.2351    8.1547 H   0  0  0  0  0  0  0  0  0  0  0  0
   -9.6159    3.0926   10.3275 H   0  0  0  0  0  0  0  0  0  0  0  0
   -8.4012    1.8435   10.5082 H   0  0  0  0  0  0  0  0  0  0  0  0
   -7.9968    3.6404   12.0808 H   0  0  0  0  0  0  0  0  0  0  0  0
   -6.6609    3.5311   10.9440 H   0  0  0  0  0  0  0  0  0  0  0  0
   -7.1970    5.8502   11.3767 H   0  0  0  0  0  0  0  0  0  0  0  0
   -7.5015    5.4688    9.6913 H   0  0  0  0  0  0  0  0  0  0  0  0
   -9.2401    6.9088   10.5564 H   0  0  0  0  0  0  0  0  0  0  0  0
   -9.9201    5.3547   10.0971 H   0  0  0  0  0  0  0  0  0  0  0  0
  -10.9244    6.1222   12.1530 H   0  0  0  0  0  0  0  0  0  0  0  0
   -9.9930    4.6697   12.4880 H   0  0  0  0  0  0  0  0  0  0  0  0
   -9.0166    7.5184   13.0104 H   0  0  0  0  0  0  0  0  0  0  0  0
   -9.6984    6.4456   14.2319 H   0  0  0  0  0  0  0  0  0  0  0  0
   -8.1670    6.0397   13.4647 H   0  0  0  0  0  0  0  0  0  0  0  0
   -4.4679    1.6468   12.3153 H   0  0  0  0  0  0  0  0  0  0  0  0
   -3.0631    1.7447   11.2430 H   0  0  0  0  0  0  0  0  0  0  0  0
   -4.5079    0.8541   10.7309 H   0  0  0  0  0  0  0  0  0  0  0  0
   -1.8571   -0.5818   13.6394 H   0  0  0  0  0  0  0  0  0  0  0  0
   -1.5842    0.8966   12.7124 H   0  0  0  0  0  0  0  0  0  0  0  0
   -2.8122    0.8864   13.9748 H   0  0  0  0  0  0  0  0  0  0  0  0
  1  2  1  0  0  0  0
  2  3  1  0  0  0  0
  3  4  1  0  0  0  0
  4  5  1  0  0  0  0
  5  6  1  0  0  0  0
  6  7  1  0  0  0  0
  7  8  1  0  0  0  0
  8  9  1  0  0  0  0
  9 10  1  0  0  0  0
 10 11  1  0  0  0  0
 11 12  1  0  0  0  0
 12 13  1  0  0  0  0
 13 14  1  0  0  0  0
 14 15  1  0  0  0  0
 15 16  1  0  0  0  0
 16 17  4  0  0  0  0
 17 18  4  0  0  0  0
 18 19  4  0  0  0  0
 19 20  4  0  0  0  0
 16 21  4  0  0  0  0
 20 21  4  0  0  0  0
 21 22  1  0  0  0  0
 22 23  1  0  0  0  0
 23 24  1  0  0  0  0
 24 25  1  0  0  0  0
 25 26  1  0  0  0  0
 26 27  1  0  0  0  0
 27 28  1  0  0  0  0
 28 29  1  0  0  0  0
 29 30  1  0  0  0  0
 30 31  1  0  0  0  0
 31 32  1  0  0  0  0
 32 33  1  0  0  0  0
 33 34  1  0  0  0  0
 15 35  1  0  0  0  0
 15 36  1  0  0  0  0
  1 37  1  0  0  0  0
  1 38  1  0  0  0  0
  1 39  1  0  0  0  0
  2 40  1  0  0  0  0
  2 41  1  0  0  0  0
  3 42  1  0  0  0  0
  3 43  1  0  0  0  0
  4 44  1  0  0  0  0
  4 45  1  0  0  0  0
  5 46  1  0  0  0  0
  5 47  1  0  0  0  0
  6 48  1  0  0  0  0
  6 49  1  0  0  0  0
  7 50  1  0  0  0  0
  7 51  1  0  0  0  0
  8 52  1  0  0  0  0
  8 53  1  0  0  0  0
  9 54  1  0  0  0  0
  9 55  1  0  0  0  0
 10 56  1  0  0  0  0
 10 57  1  0  0  0  0
 11 58  1  0  0  0  0
 11 59  1  0  0  0  0
 12 60  1  0  0  0  0
 12 61  1  0  0  0  0
 13 62  1  0  0  0  0
 13 63  1  0  0  0  0
 14 64  1  0  0  0  0
 14 65  1  0  0  0  0
 17 66  1  0  0  0  0
 18 67  1  0  0  0  0
 19 68  1  0  0  0  0
 20 69  1  0  0  0  0
 23 70  1  0  0  0  0
 23 71  1  0  0  0  0
 24 72  1  0  0  0  0
 24 73  1  0  0  0  0
 25 74  1  0  0  0  0
 25 75  1  0  0  0  0
 26 76  1  0  0  0  0
 26 77  1  0  0  0  0
 27 78  1  0  0  0  0
 27 79  1  0  0  0  0
 28 80  1  0  0  0  0
 28 81  1  0  0  0  0
 29 82  1  0  0  0  0
 29 83  1  0  0  0  0
 30 84  1  0  0  0  0
 30 85  1  0  0  0  0
 31 86  1  0  0  0  0
 31 87  1  0  0  0  0
 32 88  1  0  0  0  0
 32 89  1  0  0  0  0
 33 90  1  0  0  0  0
 33 91  1  0  0  0  0
 34 92  1  0  0  0  0
 34 93  1  0  0  0  0
 34 94  1  0  0  0  0
 35 95  1  0  0  0  0
 35 96  1  0  0  0  0
 35 97  1  0  0  0  0
 36 98  1  0  0  0  0
 36 99  1  0  0  0  0
 36100  1  0  0  0  0
M  CHG  1   1   1
M  END
