 xtb: 6.7.1 (edcfbbe)
          12202402133D

 46 47  0     0  0            999 V2000
    2.3859   -0.4386   -0.1575 C   0  0  0  0  0  0  0  0  0  0  0  0
    0.9036   -0.2495   -0.1276 C   0  0  0  0  0  0  0  0  0  0  0  0
    0.0488   -1.2469   -0.5826 C   0  0  0  0  0  0  0  0  0  0  0  0
   -1.3210   -1.0807   -0.5370 C   0  0  0  0  0  0  0  0  0  0  0  0
   -1.8835    0.0869   -0.0345 C   0  0  0  0  0  0  0  0  0  0  0  0
   -1.0334    1.0868    0.4176 C   0  0  0  0  0  0  0  0  0  0  0  0
    0.3390    0.9160    0.3727 C   0  0  0  0  0  0  0  0  0  0  0  0
   -3.3989    0.2216   -0.0625 C   0  0  0  0  0  0  0  0  0  0  0  0
   -3.8040    0.7774   -1.4129 C   0  0  0  0  0  0  0  0  0  0  0  0
   -4.5668    0.0106   -2.2853 C   0  0  0  0  0  0  0  0  0  0  0  0
   -4.9181    0.4957   -3.5328 C   0  0  0  0  0  0  0  0  0  0  0  0
   -4.5136    1.7580   -3.9454 C   0  0  0  0  0  0  0  0  0  0  0  0
   -3.7401    2.5188   -3.0732 C   0  0  0  0  0  0  0  0  0  0  0  0
   -3.3869    2.0373   -1.8285 C   0  0  0  0  0  0  0  0  0  0  0  0
   -4.8750    2.2889   -5.2946 C   0  0  0  0  0  0  0  0  0  0  0  0
   -3.8842    1.0600    1.1286 C   0  0  0  0  0  0  0  0  0  0  0  0
   -5.3494    1.0127    1.4382 N   0  0  0  0  0  0  0  0  0  0  0  0
   -5.8345   -0.3736    1.5608 C   0  0  0  0  0  0  0  0  0  0  0  0
   -5.5585    1.6996    2.7284 C   0  0  0  0  0  0  0  0  0  0  0  0
   -6.1295    1.7100    0.3998 C   0  0  0  0  0  0  0  0  0  0  0  0
    2.7091   -0.9718    0.7370 H   0  0  0  0  0  0  0  0  0  0  0  0
    2.6835   -1.0273   -1.0216 H   0  0  0  0  0  0  0  0  0  0  0  0
    2.9014    0.5178   -0.1842 H   0  0  0  0  0  0  0  0  0  0  0  0
    0.4606   -2.1633   -0.9774 H   0  0  0  0  0  0  0  0  0  0  0  0
   -1.9635   -1.8685   -0.9033 H   0  0  0  0  0  0  0  0  0  0  0  0
   -1.4192    2.0149    0.8127 H   0  0  0  0  0  0  0  0  0  0  0  0
    0.9807    1.7073    0.7309 H   0  0  0  0  0  0  0  0  0  0  0  0
   -3.7950   -0.7940    0.0231 H   0  0  0  0  0  0  0  0  0  0  0  0
   -4.8831   -0.9835   -1.9969 H   0  0  0  0  0  0  0  0  0  0  0  0
   -5.5082   -0.1206   -4.1943 H   0  0  0  0  0  0  0  0  0  0  0  0
   -3.4013    3.4963   -3.3821 H   0  0  0  0  0  0  0  0  0  0  0  0
   -2.7608    2.6392   -1.1870 H   0  0  0  0  0  0  0  0  0  0  0  0
   -5.5615    1.6216   -5.8082 H   0  0  0  0  0  0  0  0  0  0  0  0
   -5.3361    3.2713   -5.2089 H   0  0  0  0  0  0  0  0  0  0  0  0
   -3.9792    2.3983   -5.9044 H   0  0  0  0  0  0  0  0  0  0  0  0
   -3.3516    0.7148    2.0183 H   0  0  0  0  0  0  0  0  0  0  0  0
   -3.6331    2.1076    0.9582 H   0  0  0  0  0  0  0  0  0  0  0  0
   -5.1836   -0.9430    2.2222 H   0  0  0  0  0  0  0  0  0  0  0  0
   -6.8425   -0.3775    1.9720 H   0  0  0  0  0  0  0  0  0  0  0  0
   -5.8631   -0.8534    0.5856 H   0  0  0  0  0  0  0  0  0  0  0  0
   -5.1668    2.7142    2.6844 H   0  0  0  0  0  0  0  0  0  0  0  0
   -6.6212    1.7482    2.9601 H   0  0  0  0  0  0  0  0  0  0  0  0
   -5.0517    1.1640    3.5293 H   0  0  0  0  0  0  0  0  0  0  0  0
   -7.1912    1.6577    0.6345 H   0  0  0  0  0  0  0  0  0  0  0  0
   -5.8329    2.7558    0.3458 H   0  0  0  0  0  0  0  0  0  0  0  0
   -5.9534    1.2534   -0.5732 H   0  0  0  0  0  0  0  0  0  0  0  0
  1  2  1  0  0  0  0
  2  3  4  0  0  0  0
  3  4  4  0  0  0  0
  4  5  4  0  0  0  0
  5  6  4  0  0  0  0
  2  7  4  0  0  0  0
  6  7  4  0  0  0  0
  5  8  1  0  0  0  0
  8  9  1  0  0  0  0
  9 10  4  0  0  0  0
 10 11  4  0  0  0  0
 11 12  4  0  0  0  0
 12 13  4  0  0  0  0
  9 14  4  0  0  0  0
 13 14  4  0  0  0  0
 12 15  1  0  0  0  0
  8 16  1  0  0  0  0
 16 17  1  0  0  0  0
 17 18  1  0  0  0  0
 17 19  1  0  0  0  0
 17 20  1  0  0  0  0
  1 21  1  0  0  0  0
  1 22  1  0  0  0  0
  1 23  1  0  0  0  0
  3 24  1  0  0  0  0
  4 25  1  0  0  0  0
  6 26  1  0  0  0  0
  7 27  1  0  0  0  0
  8 28  1  0  0  0  0
 10 29  1  0  0  0  0
 11 30  1  0  0  0  0
 13 31  1  0  0  0  0
 14 32  1  0  0  0  0
 15 33  1  0  0  0  0
 15 34  1  0  0  0  0
 15 35  1  0  0  0  0
 16 36  1  0  0  0  0
 16 37  1  0  0  0  0
 18 38  1  0  0  0  0
 18 39  1  0  0  0  0
 18 40  1  0  0  0  0
 19 41  1  0  0  0  0
 19 42  1  0  0  0  0
 19 43  1  0  0  0  0
 20 44  1  0  0  0  0
 20 45  1  0  0  0  0
 20 46  1  0  0  0  0
M  CHG  1   1   1
M  END
