32

C          0.32796       -0.38853        0.35487
N         -0.06082       -0.24391       -1.04301
C         -0.53545        0.90825       -1.64639
C         -0.71849        0.61234       -2.96716
N         -0.32261       -0.70442       -3.13756
C         -0.00990       -1.23852       -1.94325
C         -0.26235       -1.43440       -4.41478
C          0.97748       -2.30811       -4.47633
O          1.02936       -3.40744       -3.93055
C          2.19201       -1.74530       -5.10092
C          2.86638       -2.48848       -6.06931
C          4.02816       -1.96834       -6.64699
C          4.53565       -0.72199       -6.24408
C          3.85588        0.00808       -5.26061
C          2.68627       -0.50278       -4.68840
C          5.77484       -0.22488       -6.90512
O          6.22095       -0.77547       -7.90395
N          6.41550        0.85470       -6.36618
H         -0.08648       -1.31913        0.75035
H         -0.04791        0.45517        0.93941
H          1.41979       -0.41506        0.41056
H         -0.67380        1.79750       -1.05525
H         -1.05770        1.17946       -3.81753
H          0.27827       -2.26669       -1.74431
H         -1.15196       -2.06744       -4.49789
H         -0.27188       -0.72642       -5.24982
H          2.50272       -3.46563       -6.38242
H          4.54747       -2.54402       -7.41393
H          4.21365        0.97855       -4.93089
H          2.19786        0.07099       -3.90652
H          6.22497        1.24948       -5.45936
H          7.28993        1.11601       -6.80797
