42

C          1.24349        0.17662        0.05931
C          0.36546        0.63885       -1.08864
N          0.85154        0.12539       -2.37573
C          0.64827       -1.13889       -2.75846
N          1.08974       -1.29150       -4.01019
C          1.56543       -0.05842       -4.49662
C          1.43143        0.85302       -3.43448
C          1.75720        2.32264       -3.43848
C          2.39671        2.89660       -2.33538
C          2.69962        4.25972       -2.33336
C          2.36258        5.05209       -3.42880
C          1.72497        4.48415       -4.52980
C          1.42178        3.12116       -4.53819
C          2.17183        0.19189       -5.84835
C          1.51328       -0.25815       -6.99670
C          2.06623       -0.01835       -8.25589
C          3.27370        0.66863       -8.36944
C          3.93000        1.12104       -7.22601
C          3.38141        0.88598       -5.96404
C          1.18737       -2.61101       -4.64787
C          2.45110       -3.33264       -4.21702
H          1.24250       -0.91562        0.13411
H          0.88006        0.58425        1.00724
H          2.28056        0.49429       -0.08054
H         -0.65473        0.26211       -0.94805
H          0.29406        1.72867       -1.11378
H          0.21175       -1.91915       -2.14601
H          2.70721        2.29948       -1.48404
H          3.20821        4.70668       -1.48138
H          2.59975        6.11426       -3.42627
H          1.46069        5.10724       -5.38212
H          0.90273        2.71788       -5.40466
H          0.54872       -0.75589       -6.94006
H          1.55183       -0.35574       -9.15360
H          3.70225        0.85704       -9.35202
H          4.87216        1.65762       -7.32050
H          3.92643        1.23802       -5.09106
H          0.30574       -3.19117       -4.35163
H          1.15705       -2.52336       -5.73349
H          2.47017       -3.46978       -3.13098
H          2.50945       -4.31812       -4.68850
H          3.34167       -2.76101       -4.49626
