 xtb: 6.7.1 (edcfbbe)
          12202402133D

 36 36  0     0  0            999 V2000
    1.1866   -0.2089    0.2546 C   0  0  0  0  0  0  0  0  0  0  0  0
    0.5747    1.0971    0.7397 C   0  0  0  0  0  0  0  0  0  0  0  0
    1.0117    2.3371    0.0245 N   0  0  0  0  0  0  0  0  0  0  0  0
    0.4072    2.3444   -1.3821 C   0  0  0  0  0  0  0  0  0  0  0  0
   -1.1078    2.3637   -1.3571 C   0  0  0  0  0  0  0  0  0  0  0  0
   -1.8374    3.5447   -1.2498 C   0  0  0  0  0  0  0  0  0  0  0  0
   -3.2211    3.5203   -1.2622 C   0  0  0  0  0  0  0  0  0  0  0  0
   -3.8994    2.3203   -1.3914 C   0  0  0  0  0  0  0  0  0  0  0  0
   -3.1852    1.1419   -1.5205 C   0  0  0  0  0  0  0  0  0  0  0  0
   -1.8017    1.1651   -1.5057 C   0  0  0  0  0  0  0  0  0  0  0  0
    0.9685    3.4416   -2.2819 C   0  0  0  0  0  0  0  0  0  0  0  0
    0.5292    3.5213    0.7995 C   0  0  0  0  0  0  0  0  0  0  0  0
    1.2187    3.7804    2.1317 C   0  0  0  0  0  0  0  0  0  0  0  0
    2.4823    2.3681   -0.0713 C   0  0  0  0  0  0  0  0  0  0  0  0
    0.9991   -0.4024   -0.7967 H   0  0  0  0  0  0  0  0  0  0  0  0
    0.7258   -1.0162    0.8181 H   0  0  0  0  0  0  0  0  0  0  0  0
    2.2558   -0.2556    0.4349 H   0  0  0  0  0  0  0  0  0  0  0  0
   -0.5127    1.0459    0.6583 H   0  0  0  0  0  0  0  0  0  0  0  0
    0.8329    1.2196    1.7912 H   0  0  0  0  0  0  0  0  0  0  0  0
    0.7147    1.3886   -1.8155 H   0  0  0  0  0  0  0  0  0  0  0  0
   -1.3391    4.4980   -1.1718 H   0  0  0  0  0  0  0  0  0  0  0  0
   -3.7690    4.4456   -1.1781 H   0  0  0  0  0  0  0  0  0  0  0  0
   -4.9773    2.3056   -1.4046 H   0  0  0  0  0  0  0  0  0  0  0  0
   -3.7017    0.2026   -1.6402 H   0  0  0  0  0  0  0  0  0  0  0  0
   -1.2606    0.2381   -1.6301 H   0  0  0  0  0  0  0  0  0  0  0  0
    2.0175    3.2831   -2.5140 H   0  0  0  0  0  0  0  0  0  0  0  0
    0.4192    3.4055   -3.2200 H   0  0  0  0  0  0  0  0  0  0  0  0
    0.8460    4.4410   -1.8762 H   0  0  0  0  0  0  0  0  0  0  0  0
    0.6719    4.4011    0.1726 H   0  0  0  0  0  0  0  0  0  0  0  0
   -0.5408    3.3853    0.9659 H   0  0  0  0  0  0  0  0  0  0  0  0
    2.2705    4.0235    2.0143 H   0  0  0  0  0  0  0  0  0  0  0  0
    0.7351    4.6423    2.5851 H   0  0  0  0  0  0  0  0  0  0  0  0
    1.1206    2.9554    2.8312 H   0  0  0  0  0  0  0  0  0  0  0  0
    2.9199    2.0995    0.8874 H   0  0  0  0  0  0  0  0  0  0  0  0
    2.8258    1.6611   -0.8227 H   0  0  0  0  0  0  0  0  0  0  0  0
    2.8194    3.3650   -0.3442 H   0  0  0  0  0  0  0  0  0  0  0  0
  1  2  1  0  0  0  0
  2  3  1  0  0  0  0
  3  4  1  0  0  0  0
  4  5  1  0  0  0  0
  5  6  4  0  0  0  0
  6  7  4  0  0  0  0
  7  8  4  0  0  0  0
  8  9  4  0  0  0  0
  5 10  4  0  0  0  0
  9 10  4  0  0  0  0
  4 11  1  0  0  0  0
  3 12  1  0  0  0  0
 12 13  1  0  0  0  0
  3 14  1  0  0  0  0
  1 15  1  0  0  0  0
  1 16  1  0  0  0  0
  1 17  1  0  0  0  0
  2 18  1  0  0  0  0
  2 19  1  0  0  0  0
  4 20  1  0  0  0  0
  6 21  1  0  0  0  0
  7 22  1  0  0  0  0
  8 23  1  0  0  0  0
  9 24  1  0  0  0  0
 10 25  1  0  0  0  0
 11 26  1  0  0  0  0
 11 27  1  0  0  0  0
 11 28  1  0  0  0  0
 12 29  1  0  0  0  0
 12 30  1  0  0  0  0
 13 31  1  0  0  0  0
 13 32  1  0  0  0  0
 13 33  1  0  0  0  0
 14 34  1  0  0  0  0
 14 35  1  0  0  0  0
 14 36  1  0  0  0  0
M  CHG  1   1   1
M  END
