100

C          1.00210       -0.37837       -0.86863
C          0.88081       -1.19100        0.41077
C          1.30306       -0.41899        1.66212
C          0.46541        0.82290        1.98680
C         -1.02747        0.57497        2.23394
C         -1.36334       -0.44661        3.32619
C         -0.70509       -0.20012        4.68591
C         -1.12008        1.09522        5.39140
C         -2.55744        1.12918        5.92604
C         -2.95314       -0.01123        6.87457
C         -1.95819       -0.32050        7.99696
C         -1.77959        0.78941        9.03622
C         -2.90000        0.90957       10.07728
C         -3.17466       -0.41889       10.79354
N         -3.72947       -0.25159       12.21827
C         -4.28686       -1.63730       12.65040
C         -3.61932       -2.38357       13.64133
C         -4.10369       -3.62087       14.07131
C         -5.26919       -4.13653       13.52664
C         -5.94467       -3.43100       12.53227
C         -5.45868       -2.20093       12.05686
O         -6.06813       -1.51998       11.01983
C         -7.09243       -2.21388       10.29028
C         -7.35813       -1.57032        8.92692
C         -8.12225       -0.24011        8.94247
C         -7.27696        0.92972        9.43812
C         -7.70744        2.28640        8.87767
C         -8.95841        2.89028        9.51975
C         -8.84205        3.24099       11.00918
C         -7.62669        4.08461       11.41325
C         -7.45332        5.40990       10.66378
C         -8.60962        6.40433       10.79943
C         -8.92783        6.85655       12.22614
C         -7.76509        7.55316       12.91643
C         -4.85681        0.76505       12.33508
C         -2.61330        0.22347       13.15088
H          0.29293        0.45423       -0.88304
H          0.79006       -1.01064       -1.73674
H          2.01331        0.02494       -0.98338
H         -0.14426       -1.56204        0.51515
H          1.52312       -2.07564        0.32073
H          1.28948       -1.10635        2.51564
H          2.34888       -0.10643        1.54742
H          0.89936        1.31012        2.86838
H          0.56598        1.55269        1.17467
H         -1.49930        1.53343        2.48162
H         -1.49884        0.24855        1.29899
H         -2.45235       -0.48622        3.44749
H         -1.06722       -1.44423        2.97930
H         -0.91619       -1.06250        5.32708
H          0.38433       -0.19203        4.56855
H         -0.43073        1.26649        6.22710
H         -0.97538        1.94903        4.71962
H         -2.70620        2.08574        6.44209
H         -3.25764        1.13584        5.08171
H         -3.93713        0.21198        7.30469
H         -3.08816       -0.92339        6.27993
H         -2.26501       -1.25268        8.48332
H         -0.97562       -0.54095        7.56665
H         -0.84506        0.59312        9.57799
H         -1.64241        1.75836        8.54353
H         -2.60494        1.69611       10.77809
H         -3.81839        1.25820        9.59080
H         -3.88907       -0.99249       10.19654
H         -2.26061       -1.01764       10.89100
H         -2.70518       -2.05010       14.11917
H         -3.57192       -4.18117       14.83915
H         -5.65244       -5.09671       13.86956
H         -6.85461       -3.88420       12.14744
H         -6.76560       -3.23939       10.07689
H         -8.01305       -2.23738       10.88419
H         -6.40887       -1.43703        8.39348
H         -7.95667       -2.27900        8.34018
H         -8.44876       -0.04116        7.91429
H         -9.03197       -0.33088        9.54741
H         -7.30864        0.94903       10.52915
H         -6.23374        0.77131        9.14078
H         -6.86964        2.98379        8.98681
H         -7.87407        2.19731        7.79706
H         -9.21982        3.79991        8.96535
H         -9.80390        2.20445        9.38702
H         -9.75885        3.76101       11.31295
H         -8.82441        2.31390       11.59498
H         -7.68348        4.28046       12.49072
H         -6.71589        3.48908       11.27559
H         -6.52575        5.88280       11.00831
H         -7.29779        5.21087        9.59736
H         -8.37009        7.28969       10.19647
H         -9.51583        5.97532       10.35655
H         -9.77343        7.55382       12.18375
H         -9.25807        6.00622       12.83225
H         -7.39289        8.38834       12.31457
H         -8.08643        7.95074       13.88449
H         -6.93676        6.86289       13.10118
H         -5.38001        0.61471       13.28501
H         -4.43066        1.77316       12.31171
H         -5.52179        0.66193       11.48816
H         -1.74600       -0.43548       13.04619
H         -2.31805        1.23700       12.86489
H         -2.99131        0.24433       14.17837
