 xtb: 6.7.1 (edcfbbe)
          12202402133D

 43 43  0     0  0            999 V2000
    1.0099   -0.0593    0.8445 C   0  0  0  0  0  0  0  0  0  0  0  0
    0.7845    1.3428    1.3978 C   0  0  0  0  0  0  0  0  0  0  0  0
    1.1285    2.4485    0.3983 C   0  0  0  0  0  0  0  0  0  0  0  0
    0.2841    2.4481   -0.8776 C   0  0  0  0  0  0  0  0  0  0  0  0
   -1.2203    2.6262   -0.6585 C   0  0  0  0  0  0  0  0  0  0  0  0
   -1.6207    3.9064    0.0803 C   0  0  0  0  0  0  0  0  0  0  0  0
   -1.1273    5.2030   -0.5631 C   0  0  0  0  0  0  0  0  0  0  0  0
   -1.6704    5.4507   -1.9761 C   0  0  0  0  0  0  0  0  0  0  0  0
   -3.0945    5.6943   -1.9613 N   0  0  0  0  0  0  0  0  0  0  0  0
   -4.0725    4.7508   -2.0336 C   0  0  0  0  0  0  0  0  0  0  0  0
   -5.2680    5.3956   -1.9288 C   0  0  0  0  0  0  0  0  0  0  0  0
   -5.0018    6.7236   -1.7960 N   0  0  0  0  0  0  0  0  0  0  0  0
   -3.6810    6.8788   -1.8096 C   0  0  0  0  0  0  0  0  0  0  0  0
   -5.9846    7.7636   -1.5984 C   0  0  0  0  0  0  0  0  0  0  0  0
   -6.4166    7.8452   -0.1292 C   0  0  0  0  0  0  0  0  0  0  0  0
   -5.2755    8.2561    0.7916 C   0  0  0  0  0  0  0  0  0  0  0  0
    0.3154   -0.2853    0.0390 H   0  0  0  0  0  0  0  0  0  0  0  0
    0.8663   -0.7986    1.6283 H   0  0  0  0  0  0  0  0  0  0  0  0
    2.0238   -0.1589    0.4642 H   0  0  0  0  0  0  0  0  0  0  0  0
   -0.2512    1.4428    1.7288 H   0  0  0  0  0  0  0  0  0  0  0  0
    1.4181    1.4783    2.2768 H   0  0  0  0  0  0  0  0  0  0  0  0
    1.0399    3.4155    0.8990 H   0  0  0  0  0  0  0  0  0  0  0  0
    2.1742    2.3338    0.1046 H   0  0  0  0  0  0  0  0  0  0  0  0
    0.6562    3.2350   -1.5386 H   0  0  0  0  0  0  0  0  0  0  0  0
    0.4355    1.5026   -1.3997 H   0  0  0  0  0  0  0  0  0  0  0  0
   -1.7125    2.5831   -1.6343 H   0  0  0  0  0  0  0  0  0  0  0  0
   -1.5965    1.7804   -0.0822 H   0  0  0  0  0  0  0  0  0  0  0  0
   -2.7103    3.9326    0.1767 H   0  0  0  0  0  0  0  0  0  0  0  0
   -1.2159    3.8662    1.0914 H   0  0  0  0  0  0  0  0  0  0  0  0
   -1.4003    6.0468    0.0750 H   0  0  0  0  0  0  0  0  0  0  0  0
   -0.0406    5.1815   -0.6299 H   0  0  0  0  0  0  0  0  0  0  0  0
   -1.1788    6.3234   -2.4104 H   0  0  0  0  0  0  0  0  0  0  0  0
   -1.4747    4.5846   -2.6091 H   0  0  0  0  0  0  0  0  0  0  0  0
   -3.8622    3.7090   -2.1629 H   0  0  0  0  0  0  0  0  0  0  0  0
   -6.2653    5.0062   -1.9473 H   0  0  0  0  0  0  0  0  0  0  0  0
   -3.1676    7.8172   -1.7289 H   0  0  0  0  0  0  0  0  0  0  0  0
   -5.5495    8.7146   -1.9115 H   0  0  0  0  0  0  0  0  0  0  0  0
   -6.8480    7.5438   -2.2295 H   0  0  0  0  0  0  0  0  0  0  0  0
   -7.2185    8.5801   -0.0635 H   0  0  0  0  0  0  0  0  0  0  0  0
   -6.8204    6.8816    0.1859 H   0  0  0  0  0  0  0  0  0  0  0  0
   -4.8636    9.2167    0.4915 H   0  0  0  0  0  0  0  0  0  0  0  0
   -5.6413    8.3519    1.8094 H   0  0  0  0  0  0  0  0  0  0  0  0
   -4.4775    7.5156    0.7941 H   0  0  0  0  0  0  0  0  0  0  0  0
  1  2  1  0  0  0  0
  2  3  1  0  0  0  0
  3  4  1  0  0  0  0
  4  5  1  0  0  0  0
  5  6  1  0  0  0  0
  6  7  1  0  0  0  0
  7  8  1  0  0  0  0
  8  9  1  0  0  0  0
  9 10  4  0  0  0  0
 10 11  2  0  0  0  0
 11 12  4  0  0  0  0
  9 13  4  0  0  0  0
 12 13  4  0  0  0  0
 12 14  1  0  0  0  0
 14 15  1  0  0  0  0
 15 16  1  0  0  0  0
  1 17  1  0  0  0  0
  1 18  1  0  0  0  0
  1 19  1  0  0  0  0
  2 20  1  0  0  0  0
  2 21  1  0  0  0  0
  3 22  1  0  0  0  0
  3 23  1  0  0  0  0
  4 24  1  0  0  0  0
  4 25  1  0  0  0  0
  5 26  1  0  0  0  0
  5 27  1  0  0  0  0
  6 28  1  0  0  0  0
  6 29  1  0  0  0  0
  7 30  1  0  0  0  0
  7 31  1  0  0  0  0
  8 32  1  0  0  0  0
  8 33  1  0  0  0  0
 10 34  1  0  0  0  0
 11 35  1  0  0  0  0
 13 36  1  0  0  0  0
 14 37  1  0  0  0  0
 14 38  1  0  0  0  0
 15 39  1  0  0  0  0
 15 40  1  0  0  0  0
 16 41  1  0  0  0  0
 16 42  1  0  0  0  0
 16 43  1  0  0  0  0
M  CHG  1   1   1
M  END
