26

C          0.96461        0.03944        0.42189
C          0.45101        1.40800        0.00468
C          1.02157        1.95909       -1.30496
N          0.42978        1.39244       -2.61066
C         -1.10858        1.42148       -2.66814
C         -1.70382        2.80572       -2.46778
C          1.01052        2.21983       -3.77222
C          0.88410       -0.05174       -2.84444
H          0.46062       -0.76651       -0.11371
H          0.76626       -0.12107        1.48726
H          2.04388       -0.04926        0.26548
H         -0.64250        1.41558        0.01596
H          0.75509        2.10892        0.79380
H          0.84465        3.04084       -1.33322
H          2.10727        1.80964       -1.35149
H         -1.39874        1.02727       -3.64944
H         -1.48051        0.72767       -1.90707
H         -1.39930        3.50159       -3.25411
H         -2.79661        2.73940       -2.50361
H         -1.43853        3.23626       -1.49878
H          2.09363        2.06391       -3.79461
H          0.55480        1.87740       -4.70595
H          0.79115        3.27681       -3.60202
H          1.95934       -0.11732       -2.65646
H          0.32420       -0.71342       -2.18380
H          0.66351       -0.31896       -3.88304
