 xtb: 6.7.1 (edcfbbe)
          12202402133D

 15 16  0     0  0            999 V2000
    2.5734   -0.4121    0.0035 C   0  0  0  0  0  0  0  0  0  0  0  0
    2.3194    0.9624   -0.0024 C   0  0  0  0  0  0  0  0  0  0  0  0
    1.0297    1.4555   -0.0066 C   0  0  0  0  0  0  0  0  0  0  0  0
   -0.0127    0.5380   -0.0049 C   0  0  0  0  0  0  0  0  0  0  0  0
    0.2392   -0.8453    0.0010 C   0  0  0  0  0  0  0  0  0  0  0  0
    1.5453   -1.3305    0.0053 C   0  0  0  0  0  0  0  0  0  0  0  0
   -0.9308   -1.5664    0.0018 N   0  0  0  0  0  0  0  0  0  0  0  0
   -2.0249   -0.8271   -0.0031 C   0  0  0  0  0  0  0  0  0  0  0  0
   -1.7354    0.8327   -0.0091 S   0  0  0  0  0  0  0  0  0  0  0  0
    3.5943   -0.7594    0.0067 H   0  0  0  0  0  0  0  0  0  0  0  0
    3.1486    1.6520   -0.0036 H   0  0  0  0  0  0  0  0  0  0  0  0
    0.8335    2.5151   -0.0112 H   0  0  0  0  0  0  0  0  0  0  0  0
    1.7384   -2.3913    0.0098 H   0  0  0  0  0  0  0  0  0  0  0  0
   -0.9409   -2.5810    0.0058 H   0  0  0  0  0  0  0  0  0  0  0  0
   -3.0145   -1.2494   -0.0032 H   0  0  0  0  0  0  0  0  0  0  0  0
  1  2  4  0  0  0  0
  2  3  4  0  0  0  0
  3  4  4  0  0  0  0
  4  5  4  0  0  0  0
  1  6  4  0  0  0  0
  5  6  4  0  0  0  0
  5  7  1  0  0  0  0
  7  8  4  0  0  0  0
  4  9  1  0  0  0  0
  8  9  2  0  0  0  0
  1 10  1  0  0  0  0
  2 11  1  0  0  0  0
  3 12  1  0  0  0  0
  6 13  1  0  0  0  0
  7 14  1  0  0  0  0
  8 15  1  0  0  0  0
M  CHG  1   1   1
M  END
