31

O          0.91401        0.22294        0.01107
C          0.67330       -0.59757        1.14966
C          1.10604       -2.04781        0.87780
N          2.63719       -2.26767        0.76338
C          3.38893       -1.97933        2.07957
C          2.91248       -2.70383        3.31545
C          2.06866       -2.06259        4.23784
C          1.61744       -2.73150        5.37706
C          2.00797       -4.04577        5.61485
C          2.86146       -4.68883        4.72243
C          3.31784       -4.02073        3.58436
C          2.85711       -3.71540        0.32780
C          3.23289       -1.37297       -0.32828
H          0.44851        1.06987        0.15573
H          1.18717       -0.16017        2.00722
H         -0.40337       -0.58198        1.34889
H          0.74102       -2.71391        1.66597
H          0.68281       -2.37819       -0.07877
H          4.44582       -2.21706        1.89972
H          3.34194       -0.89597        2.24393
H          1.76567       -1.02723        4.10037
H          0.97023       -2.22436        6.09039
H          1.66116       -4.56420        6.50660
H          3.18034       -5.70969        4.92388
H          4.00547       -4.54453        2.92359
H          2.45782       -3.83616       -0.68441
H          3.93091       -3.92488        0.33492
H          2.32420       -4.38002        1.01203
H          2.62955       -1.47590       -1.23473
H          3.25660       -0.33957        0.02534
H          4.25810       -1.70661       -0.51922
