 xtb: 6.7.1 (edcfbbe)
          12202402133D

 67 69  0     0  0            999 V2000
    1.3992    0.9874    0.0834 C   0  0  0  0  0  0  0  0  0  0  0  0
    1.1951    1.5872   -1.3028 C   0  0  0  0  0  0  0  0  0  0  0  0
    1.4852    0.6015   -2.4358 C   0  0  0  0  0  0  0  0  0  0  0  0
    0.5787   -0.6306   -2.4679 C   0  0  0  0  0  0  0  0  0  0  0  0
   -0.9126   -0.3330   -2.6369 C   0  0  0  0  0  0  0  0  0  0  0  0
   -1.2814    0.4206   -3.9168 C   0  0  0  0  0  0  0  0  0  0  0  0
   -0.8539   -0.2637   -5.2173 C   0  0  0  0  0  0  0  0  0  0  0  0
   -1.3776   -1.6894   -5.4015 C   0  0  0  0  0  0  0  0  0  0  0  0
   -2.9021   -1.8219   -5.4312 C   0  0  0  0  0  0  0  0  0  0  0  0
   -3.5771   -1.1669   -6.6391 C   0  0  0  0  0  0  0  0  0  0  0  0
   -3.3013   -1.8747   -7.9683 C   0  0  0  0  0  0  0  0  0  0  0  0
   -4.0218   -3.2212   -8.1016 C   0  0  0  0  0  0  0  0  0  0  0  0
   -5.4438   -3.0629   -8.3279 N   0  0  0  0  0  0  0  0  0  0  0  0
   -6.0233   -2.8188   -9.5149 C   0  0  0  0  0  0  0  0  0  0  0  0
   -5.3788   -2.7386  -10.6845 N   0  0  0  0  0  0  0  0  0  0  0  0
   -7.3577   -2.7261   -9.3784 N   0  0  0  0  0  0  0  0  0  0  0  0
   -7.6640   -2.9097   -8.0352 C   0  0  0  0  0  0  0  0  0  0  0  0
   -6.4477   -3.1219   -7.3675 C   0  0  0  0  0  0  0  0  0  0  0  0
   -6.4092   -3.3458   -6.0012 C   0  0  0  0  0  0  0  0  0  0  0  0
   -7.6168   -3.3453   -5.3273 C   0  0  0  0  0  0  0  0  0  0  0  0
   -8.8228   -3.1314   -5.9897 C   0  0  0  0  0  0  0  0  0  0  0  0
   -8.8697   -2.9111   -7.3544 C   0  0  0  0  0  0  0  0  0  0  0  0
   -8.3008   -2.5165  -10.4614 C   0  0  0  0  0  0  0  0  0  0  0  0
   -7.9222   -1.3254  -11.3075 C   0  0  0  0  0  0  0  0  0  0  0  0
   -7.7574   -1.4521  -12.6831 C   0  0  0  0  0  0  0  0  0  0  0  0
   -7.4055   -0.3585  -13.4541 C   0  0  0  0  0  0  0  0  0  0  0  0
   -7.2047    0.8739  -12.8465 C   0  0  0  0  0  0  0  0  0  0  0  0
   -7.3680    1.0128  -11.4731 C   0  0  0  0  0  0  0  0  0  0  0  0
   -7.7275   -0.0826  -10.7122 C   0  0  0  0  0  0  0  0  0  0  0  0
   -6.7547    2.2354  -13.7979 Cl  0  0  0  0  0  0  0  0  0  0  0  0
    0.6813    0.1951    0.2796 H   0  0  0  0  0  0  0  0  0  0  0  0
    1.2731    1.7521    0.8463 H   0  0  0  0  0  0  0  0  0  0  0  0
    2.4017    0.5751    0.1754 H   0  0  0  0  0  0  0  0  0  0  0  0
    0.1749    1.9657   -1.3897 H   0  0  0  0  0  0  0  0  0  0  0  0
    1.8675    2.4406   -1.4182 H   0  0  0  0  0  0  0  0  0  0  0  0
    1.4110    1.1313   -3.3880 H   0  0  0  0  0  0  0  0  0  0  0  0
    2.5176    0.2565   -2.3382 H   0  0  0  0  0  0  0  0  0  0  0  0
    0.9134   -1.2793   -3.2805 H   0  0  0  0  0  0  0  0  0  0  0  0
    0.7091   -1.1918   -1.5409 H   0  0  0  0  0  0  0  0  0  0  0  0
   -1.4566   -1.2801   -2.6036 H   0  0  0  0  0  0  0  0  0  0  0  0
   -1.2572    0.2580   -1.7866 H   0  0  0  0  0  0  0  0  0  0  0  0
   -2.3634    0.5754   -3.9247 H   0  0  0  0  0  0  0  0  0  0  0  0
   -0.8221    1.4101   -3.8921 H   0  0  0  0  0  0  0  0  0  0  0  0
   -1.1773    0.3583   -6.0555 H   0  0  0  0  0  0  0  0  0  0  0  0
    0.2357   -0.3017   -5.2555 H   0  0  0  0  0  0  0  0  0  0  0  0
   -0.9553   -2.0945   -6.3244 H   0  0  0  0  0  0  0  0  0  0  0  0
   -1.0029   -2.3089   -4.5860 H   0  0  0  0  0  0  0  0  0  0  0  0
   -3.1478   -2.8865   -5.3994 H   0  0  0  0  0  0  0  0  0  0  0  0
   -3.3127   -1.3731   -4.5265 H   0  0  0  0  0  0  0  0  0  0  0  0
   -4.6563   -1.1259   -6.4703 H   0  0  0  0  0  0  0  0  0  0  0  0
   -3.2259   -0.1384   -6.7190 H   0  0  0  0  0  0  0  0  0  0  0  0
   -3.6059   -1.2218   -8.7905 H   0  0  0  0  0  0  0  0  0  0  0  0
   -2.2306   -2.0511   -8.0673 H   0  0  0  0  0  0  0  0  0  0  0  0
   -3.6035   -3.8018   -8.9286 H   0  0  0  0  0  0  0  0  0  0  0  0
   -3.8973   -3.8060   -7.1903 H   0  0  0  0  0  0  0  0  0  0  0  0
   -4.3743   -2.6947  -10.6979 H   0  0  0  0  0  0  0  0  0  0  0  0
   -5.8778   -2.3961  -11.4929 H   0  0  0  0  0  0  0  0  0  0  0  0
   -5.4834   -3.5083   -5.4757 H   0  0  0  0  0  0  0  0  0  0  0  0
   -7.6243   -3.5150   -4.2627 H   0  0  0  0  0  0  0  0  0  0  0  0
   -9.7418   -3.1392   -5.4264 H   0  0  0  0  0  0  0  0  0  0  0  0
   -9.8099   -2.7510   -7.8561 H   0  0  0  0  0  0  0  0  0  0  0  0
   -8.3545   -3.4210  -11.0768 H   0  0  0  0  0  0  0  0  0  0  0  0
   -9.2804   -2.3552  -10.0069 H   0  0  0  0  0  0  0  0  0  0  0  0
   -7.9249   -2.4065  -13.1615 H   0  0  0  0  0  0  0  0  0  0  0  0
   -7.2904   -0.4583  -14.5211 H   0  0  0  0  0  0  0  0  0  0  0  0
   -7.2229    1.9754  -11.0104 H   0  0  0  0  0  0  0  0  0  0  0  0
   -7.8659    0.0299   -9.6467 H   0  0  0  0  0  0  0  0  0  0  0  0
  1  2  1  0  0  0  0
  2  3  1  0  0  0  0
  3  4  1  0  0  0  0
  4  5  1  0  0  0  0
  5  6  1  0  0  0  0
  6  7  1  0  0  0  0
  7  8  1  0  0  0  0
  8  9  1  0  0  0  0
  9 10  1  0  0  0  0
 10 11  1  0  0  0  0
 11 12  1  0  0  0  0
 12 13  1  0  0  0  0
 13 14  4  0  0  0  0
 14 15  4  0  0  0  0
 14 16  4  0  0  0  0
 16 17  1  0  0  0  0
 13 18  1  0  0  0  0
 17 18  4  0  0  0  0
 18 19  4  0  0  0  0
 19 20  4  0  0  0  0
 20 21  4  0  0  0  0
 17 22  4  0  0  0  0
 21 22  4  0  0  0  0
 16 23  1  0  0  0  0
 23 24  1  0  0  0  0
 24 25  4  0  0  0  0
 25 26  4  0  0  0  0
 26 27  4  0  0  0  0
 27 28  4  0  0  0  0
 24 29  4  0  0  0  0
 28 29  4  0  0  0  0
 27 30  1  0  0  0  0
  1 31  1  0  0  0  0
  1 32  1  0  0  0  0
  1 33  1  0  0  0  0
  2 34  1  0  0  0  0
  2 35  1  0  0  0  0
  3 36  1  0  0  0  0
  3 37  1  0  0  0  0
  4 38  1  0  0  0  0
  4 39  1  0  0  0  0
  5 40  1  0  0  0  0
  5 41  1  0  0  0  0
  6 42  1  0  0  0  0
  6 43  1  0  0  0  0
  7 44  1  0  0  0  0
  7 45  1  0  0  0  0
  8 46  1  0  0  0  0
  8 47  1  0  0  0  0
  9 48  1  0  0  0  0
  9 49  1  0  0  0  0
 10 50  1  0  0  0  0
 10 51  1  0  0  0  0
 11 52  1  0  0  0  0
 11 53  1  0  0  0  0
 12 54  1  0  0  0  0
 12 55  1  0  0  0  0
 15 56  1  0  0  0  0
 15 57  1  0  0  0  0
 19 58  1  0  0  0  0
 20 59  1  0  0  0  0
 21 60  1  0  0  0  0
 22 61  1  0  0  0  0
 23 62  1  0  0  0  0
 23 63  1  0  0  0  0
 25 64  1  0  0  0  0
 26 65  1  0  0  0  0
 28 66  1  0  0  0  0
 29 67  1  0  0  0  0
M  CHG  1   1   1
M  END
