36

C          0.09801       -0.25191        0.08430
N          0.16351        1.10223        0.59054
N         -0.07876        1.33258        1.91871
C          0.10983        2.59555        2.04154
N          0.48343        3.21246        0.86381
C          0.48419        2.23054       -0.05367
C          0.79292        4.61891        0.65950
C          2.24094        4.96613        0.99147
C          3.28479        4.35140        0.06356
C          3.21567        4.69609       -1.42539
C          3.32482        6.17040       -1.77739
C          4.60421        6.89547       -1.38992
C          5.91870        6.35677       -1.92082
C          5.98967        6.36007       -3.43653
F          5.73766        7.57868       -3.95777
F          7.20551        5.96791       -3.88010
F          5.08907        5.50116       -3.96801
F          6.93646        7.11332       -1.40913
F          6.12471        5.10146       -1.43247
F          4.47507        8.20695       -1.75501
F          4.65007        6.92856       -0.02050
F          3.09925        6.32989       -3.11126
F          2.26263        6.80307       -1.17588
F          4.15220        3.98691       -2.10829
F          2.01199        4.22117       -1.89255
F          4.51375        4.65442        0.55062
F          3.17517        2.99139        0.18645
H         -0.28934       -0.23421       -0.93771
H         -0.56201       -0.85976        0.70881
H          1.10499       -0.67719        0.08720
H          0.01493        3.17955        2.94633
H          0.71673        2.31967       -1.10758
H          0.51981        4.89982       -0.36104
H          0.13126        5.19426        1.31932
H          2.36260        6.05396        1.01990
H          2.45583        4.62111        2.01103
