65

C          1.19572        0.37217       -0.09516
C          1.02615       -0.93707       -0.84983
C          1.37441       -2.17266       -0.01616
C          0.54493       -2.36974        1.25931
C         -0.97406       -2.43164        1.06348
C         -1.41893       -3.59056        0.21580
C         -2.22951       -4.56869        0.65133
C         -2.68560       -5.72268       -0.19386
C         -2.29965       -7.03167        0.43318
C         -3.17858       -7.97218        0.81587
C         -2.78198       -9.27473        1.44824
C         -3.24707       -9.39976        2.90283
C         -4.76638       -9.42165        3.11653
C         -5.52544      -10.53781        2.38998
C         -5.02351      -11.96066        2.65395
C         -4.97661      -12.37871        4.12589
C         -6.32676      -12.39330        4.85273
C         -7.36439      -13.36011        4.27529
N         -6.86921      -14.73073        4.20638
C         -7.27750      -15.66252        3.28504
C         -6.91987      -16.89620        3.64503
N         -6.22603      -16.82921        4.90935
C         -6.39079      -15.39616        5.39604
C         -4.79385      -17.21427        4.72879
H          0.48461        0.45394        0.73206
H          1.02045        1.21839       -0.76724
H          2.20902        0.46444        0.30821
H          0.00236       -1.00956       -1.23245
H          1.68200       -0.91910       -1.72877
H          1.28187       -3.06062       -0.65282
H          2.43273       -2.11850        0.26937
H          0.88122       -3.29399        1.74727
H          0.77184       -1.56019        1.96353
H         -1.44262       -2.48959        2.05419
H         -1.33889       -1.50286        0.61157
H         -1.06665       -3.60711       -0.81351
H         -2.60201       -4.54328        1.67365
H         -3.77270       -5.65428       -0.31906
H         -2.24617       -5.67418       -1.19719
H         -1.23285       -7.19761        0.57324
H         -4.24195       -7.80336        0.66033
H         -3.17789      -10.09797        0.84394
H         -1.69015       -9.38434        1.42901
H         -2.80712      -10.30839        3.33008
H         -2.83184       -8.56624        3.48454
H         -4.96076       -9.49735        4.19331
H         -5.19221       -8.45820        2.81123
H         -6.58535      -10.47098        2.66363
H         -5.48948      -10.35375        1.30939
H         -5.65055      -12.66265        2.09177
H         -4.01628      -12.06957        2.23427
H         -4.52043      -13.37411        4.18207
H         -4.29701      -11.71769        4.67564
H         -6.14403      -12.64842        5.90414
H         -6.75346      -11.38360        4.86173
H         -8.26850      -13.33419        4.89567
H         -7.66167      -13.01894        3.27646
H         -7.82457      -15.36745        2.39670
H         -7.13527      -17.80274        3.08854
H         -6.66947      -17.44344        5.59918
H         -5.42841      -15.02253        5.75917
H         -7.13890      -15.40994        6.19657
H         -4.30394      -17.14867        5.70437
H         -4.75612      -18.24702        4.36933
H         -4.31747      -16.53353        4.01528
