 xtb: 6.7.1 (edcfbbe)
          12202402143D

 41 40  0     0  0            999 V2000
    1.1659   -0.3240   -0.0404 C   0  0  0  0  0  0  0  0  0  0  0  0
    1.0635    1.1944    0.0430 C   0  0  0  0  0  0  0  0  0  0  0  0
    1.3521    1.8974   -1.2854 C   0  0  0  0  0  0  0  0  0  0  0  0
    0.4576    1.4736   -2.4573 C   0  0  0  0  0  0  0  0  0  0  0  0
   -1.0577    1.5535   -2.2493 C   0  0  0  0  0  0  0  0  0  0  0  0
   -1.7421    2.8614   -2.5032 N   0  0  0  0  0  0  0  0  0  0  0  0
   -1.4746    3.4123   -3.8701 C   0  0  0  0  0  0  0  0  0  0  0  0
   -1.7752    2.5260   -5.0826 C   0  0  0  0  0  0  0  0  0  0  0  0
   -3.2117    2.5333   -5.6207 C   0  0  0  0  0  0  0  0  0  0  0  0
   -3.7782    3.9165   -5.9491 C   0  0  0  0  0  0  0  0  0  0  0  0
   -2.9422    4.6886   -6.9630 C   0  0  0  0  0  0  0  0  0  0  0  0
   -3.1880    2.6464   -2.3016 C   0  0  0  0  0  0  0  0  0  0  0  0
   -1.3032    3.8774   -1.5272 C   0  0  0  0  0  0  0  0  0  0  0  0
    0.3715   -0.7509   -0.6484 H   0  0  0  0  0  0  0  0  0  0  0  0
    1.0929   -0.7552    0.9541 H   0  0  0  0  0  0  0  0  0  0  0  0
    2.1225   -0.6165   -0.4653 H   0  0  0  0  0  0  0  0  0  0  0  0
    0.0796    1.4757    0.4273 H   0  0  0  0  0  0  0  0  0  0  0  0
    1.7954    1.5543    0.7674 H   0  0  0  0  0  0  0  0  0  0  0  0
    1.3173    2.9759   -1.1261 H   0  0  0  0  0  0  0  0  0  0  0  0
    2.3767    1.6592   -1.5766 H   0  0  0  0  0  0  0  0  0  0  0  0
    0.7579    2.0221   -3.3498 H   0  0  0  0  0  0  0  0  0  0  0  0
    0.6724    0.4231   -2.6596 H   0  0  0  0  0  0  0  0  0  0  0  0
   -1.5319    0.8236   -2.9069 H   0  0  0  0  0  0  0  0  0  0  0  0
   -1.2897    1.2660   -1.2228 H   0  0  0  0  0  0  0  0  0  0  0  0
   -2.0450    4.3380   -3.9583 H   0  0  0  0  0  0  0  0  0  0  0  0
   -0.4169    3.6781   -3.8950 H   0  0  0  0  0  0  0  0  0  0  0  0
   -1.1320    2.8941   -5.8835 H   0  0  0  0  0  0  0  0  0  0  0  0
   -1.4703    1.4963   -4.8976 H   0  0  0  0  0  0  0  0  0  0  0  0
   -3.1999    1.9472   -6.5414 H   0  0  0  0  0  0  0  0  0  0  0  0
   -3.8961    2.0269   -4.9390 H   0  0  0  0  0  0  0  0  0  0  0  0
   -4.7778    3.7695   -6.3605 H   0  0  0  0  0  0  0  0  0  0  0  0
   -3.8990    4.5139   -5.0416 H   0  0  0  0  0  0  0  0  0  0  0  0
   -2.7748    4.0870   -7.8526 H   0  0  0  0  0  0  0  0  0  0  0  0
   -3.4645    5.5932   -7.2614 H   0  0  0  0  0  0  0  0  0  0  0  0
   -1.9771    4.9796   -6.5547 H   0  0  0  0  0  0  0  0  0  0  0  0
   -3.3868    2.3988   -1.2600 H   0  0  0  0  0  0  0  0  0  0  0  0
   -3.7416    3.5477   -2.5570 H   0  0  0  0  0  0  0  0  0  0  0  0
   -3.5434    1.8296   -2.9236 H   0  0  0  0  0  0  0  0  0  0  0  0
   -1.3975    3.4915   -0.5141 H   0  0  0  0  0  0  0  0  0  0  0  0
   -0.2668    4.1526   -1.7015 H   0  0  0  0  0  0  0  0  0  0  0  0
   -1.9176    4.7719   -1.6177 H   0  0  0  0  0  0  0  0  0  0  0  0
  1  2  1  0  0  0  0
  2  3  1  0  0  0  0
  3  4  1  0  0  0  0
  4  5  1  0  0  0  0
  5  6  1  0  0  0  0
  6  7  1  0  0  0  0
  7  8  1  0  0  0  0
  8  9  1  0  0  0  0
  9 10  1  0  0  0  0
 10 11  1  0  0  0  0
  6 12  1  0  0  0  0
  6 13  1  0  0  0  0
  1 14  1  0  0  0  0
  1 15  1  0  0  0  0
  1 16  1  0  0  0  0
  2 17  1  0  0  0  0
  2 18  1  0  0  0  0
  3 19  1  0  0  0  0
  3 20  1  0  0  0  0
  4 21  1  0  0  0  0
  4 22  1  0  0  0  0
  5 23  1  0  0  0  0
  5 24  1  0  0  0  0
  7 25  1  0  0  0  0
  7 26  1  0  0  0  0
  8 27  1  0  0  0  0
  8 28  1  0  0  0  0
  9 29  1  0  0  0  0
  9 30  1  0  0  0  0
 10 31  1  0  0  0  0
 10 32  1  0  0  0  0
 11 33  1  0  0  0  0
 11 34  1  0  0  0  0
 11 35  1  0  0  0  0
 12 36  1  0  0  0  0
 12 37  1  0  0  0  0
 12 38  1  0  0  0  0
 13 39  1  0  0  0  0
 13 40  1  0  0  0  0
 13 41  1  0  0  0  0
M  CHG  1   1   1
M  END
