 xtb: 6.7.1 (edcfbbe)
          12202402143D

 34 35  0     0  0            999 V2000
    2.1450   -1.4187   -1.5572 O   0  0  0  0  0  0  0  0  0  0  0  0
    3.0987   -0.9424   -0.9812 C   0  0  0  0  0  0  0  0  0  0  0  0
    3.4651   -1.2373    0.4002 C   0  0  0  0  0  0  0  0  0  0  0  0
    4.6006   -0.7126    1.0274 C   0  0  0  0  0  0  0  0  0  0  0  0
    4.8818   -1.0532    2.3358 C   0  0  0  0  0  0  0  0  0  0  0  0
    4.0441   -1.9108    3.0357 C   0  0  0  0  0  0  0  0  0  0  0  0
    2.9159   -2.4358    2.4232 C   0  0  0  0  0  0  0  0  0  0  0  0
    2.6278   -2.1038    1.1157 C   0  0  0  0  0  0  0  0  0  0  0  0
    4.0174    0.0312   -1.7629 C   0  0  0  0  0  0  0  0  0  0  0  0
    3.3506    0.3806   -2.9828 N   0  0  0  0  0  0  0  0  0  0  0  0
    2.9563   -0.5085   -3.8769 C   0  0  0  0  0  0  0  0  0  0  0  0
    2.1816    0.0871   -4.7969 N   0  0  0  0  0  0  0  0  0  0  0  0
    2.0511    1.4097   -4.4558 C   0  0  0  0  0  0  0  0  0  0  0  0
    2.7690    1.5966   -3.2841 C   0  0  0  0  0  0  0  0  0  0  0  0
    2.9827    2.8111   -2.4637 C   0  0  0  0  0  0  0  0  0  0  0  0
    3.9351    2.9256   -1.7225 O   0  0  0  0  0  0  0  0  0  0  0  0
    2.0604    3.7870   -2.6465 N   0  0  0  0  0  0  0  0  0  0  0  0
    1.3056    2.2818   -5.1776 N   0  0  0  0  0  0  0  0  0  0  0  0
    1.5643   -0.5532   -5.9291 C   0  0  0  0  0  0  0  0  0  0  0  0
    5.2659   -0.0436    0.5057 H   0  0  0  0  0  0  0  0  0  0  0  0
    5.7581   -0.6468    2.8164 H   0  0  0  0  0  0  0  0  0  0  0  0
    4.2728   -2.1690    4.0582 H   0  0  0  0  0  0  0  0  0  0  0  0
    2.2650   -3.1035    2.9657 H   0  0  0  0  0  0  0  0  0  0  0  0
    1.7559   -2.5033    0.6201 H   0  0  0  0  0  0  0  0  0  0  0  0
    4.2224    0.9457   -1.2028 H   0  0  0  0  0  0  0  0  0  0  0  0
    4.9579   -0.4826   -1.9778 H   0  0  0  0  0  0  0  0  0  0  0  0
    3.2246   -1.5458   -3.8858 H   0  0  0  0  0  0  0  0  0  0  0  0
    1.1361    3.5816   -2.9850 H   0  0  0  0  0  0  0  0  0  0  0  0
    2.1601    4.6022   -2.0590 H   0  0  0  0  0  0  0  0  0  0  0  0
    1.0349    2.0031   -6.1077 H   0  0  0  0  0  0  0  0  0  0  0  0
    1.5270    3.2601   -5.0756 H   0  0  0  0  0  0  0  0  0  0  0  0
    1.9293   -0.1195   -6.8622 H   0  0  0  0  0  0  0  0  0  0  0  0
    1.8092   -1.6123   -5.9173 H   0  0  0  0  0  0  0  0  0  0  0  0
    0.4799   -0.4447   -5.8788 H   0  0  0  0  0  0  0  0  0  0  0  0
  1  2  2  0  0  0  0
  2  3  1  0  0  0  0
  3  4  4  0  0  0  0
  4  5  4  0  0  0  0
  5  6  4  0  0  0  0
  6  7  4  0  0  0  0
  3  8  4  0  0  0  0
  7  8  4  0  0  0  0
  2  9  1  0  0  0  0
  9 10  1  0  0  0  0
 10 11  4  0  0  0  0
 11 12  4  0  0  0  0
 12 13  1  0  0  0  0
 10 14  1  0  0  0  0
 13 14  4  0  0  0  0
 14 15  1  0  0  0  0
 15 16  2  0  0  0  0
 15 17  4  0  0  0  0
 13 18  4  0  0  0  0
 12 19  1  0  0  0  0
  4 20  1  0  0  0  0
  5 21  1  0  0  0  0
  6 22  1  0  0  0  0
  7 23  1  0  0  0  0
  8 24  1  0  0  0  0
  9 25  1  0  0  0  0
  9 26  1  0  0  0  0
 11 27  1  0  0  0  0
 17 28  1  0  0  0  0
 17 29  1  0  0  0  0
 18 30  1  0  0  0  0
 18 31  1  0  0  0  0
 19 32  1  0  0  0  0
 19 33  1  0  0  0  0
 19 34  1  0  0  0  0
M  CHG  1   1   1
M  END
