30

C          0.14397       -2.49936       -0.09074
C         -0.12794       -2.30249       -1.57609
C          0.66474       -1.13209       -2.16624
N          0.29459        0.17493       -1.54179
C         -0.99062        0.61294       -1.54074
C         -1.32862        1.83050       -0.96167
C         -0.33660        2.61309       -0.38941
C          0.97694        2.16733       -0.41299
C          1.27376        0.94290       -1.00039
C          0.56559       -0.99866       -3.67448
O          1.51621       -0.67067       -4.37218
O         -0.70887       -1.17562       -4.11506
C         -0.90999       -1.05189       -5.53655
C         -1.02840        0.40740       -5.93715
H          1.21312       -2.63842        0.09860
H         -0.38217       -3.38719        0.27402
H         -0.20087       -1.64194        0.49514
H          0.15079       -3.22162       -2.10688
H         -1.20596       -2.18286       -1.72813
H          1.72551       -1.31425       -1.94721
H         -1.74974       -0.01182       -2.00303
H         -2.36282        2.16938       -0.95927
H         -0.58527        3.57036        0.06741
H          1.76865        2.77419        0.02216
H          2.29570        0.57425       -1.04062
H         -0.10946       -1.55950       -6.08644
H         -1.84503       -1.57219       -5.76854
H         -0.09365        0.94556       -5.75170
H         -1.27255        0.49759       -6.99951
H         -1.80520        0.90797       -5.35025
