25

O          2.40015        0.16206       -0.39865
C          1.03859        0.14387       -0.38273
C          0.38671        1.30342       -0.77612
C         -1.00237        1.34491       -0.76716
C         -1.73584        0.22031       -0.37419
C         -1.08591       -0.96450        0.00740
C          0.32084       -0.98216        0.01690
N         -1.86341       -2.19175        0.46755
C         -1.76351       -2.26886        1.98488
C         -3.33691       -2.12015        0.06960
C         -1.28826       -3.44948       -0.18173
H          2.76971       -0.69677       -0.13656
H          0.96114        2.17600       -1.08130
H         -1.51453        2.25913       -1.06366
H         -2.81486        0.32768       -0.37776
H          0.87503       -1.85379        0.34387
H         -2.18102       -1.35149        2.41242
H         -2.33919       -3.13725        2.32020
H         -0.71432       -2.38762        2.27195
H         -3.40673       -1.98375       -1.01438
H         -3.81516       -3.06357        0.35415
H         -3.82214       -1.30606        0.61643
H         -1.26319       -3.30592       -1.26653
H         -0.29022       -3.64884        0.21713
H         -1.93703       -4.29432        0.07209
