 xtb: 6.7.1 (edcfbbe)
          12202402143D

 30 30  0     0  0            999 V2000
    0.1289   -2.4519   -0.0790 C   0  0  0  0  0  0  0  0  0  0  0  0
   -0.0751   -2.2976   -1.5813 C   0  0  0  0  0  0  0  0  0  0  0  0
    0.7263   -1.1174   -2.1449 C   0  0  0  0  0  0  0  0  0  0  0  0
    0.3461    0.1528   -1.5432 N   0  0  0  0  0  0  0  0  0  0  0  0
   -0.9186    0.5855   -1.6397 C   0  0  0  0  0  0  0  0  0  0  0  0
   -1.3030    1.7937   -1.0978 C   0  0  0  0  0  0  0  0  0  0  0  0
   -0.3629    2.5776   -0.4407 C   0  0  0  0  0  0  0  0  0  0  0  0
    0.9432    2.1134   -0.3546 C   0  0  0  0  0  0  0  0  0  0  0  0
    1.2672    0.8962   -0.9171 C   0  0  0  0  0  0  0  0  0  0  0  0
    0.5836   -1.0045   -3.6913 C   0  0  0  0  0  0  0  0  0  0  0  0
    1.5381   -0.8661   -4.3961 O   0  0  0  0  0  0  0  0  0  0  0  0
   -0.6788   -1.0750   -4.0593 O   0  0  0  0  0  0  0  0  0  0  0  0
   -0.9677   -0.9871   -5.4729 C   0  0  0  0  0  0  0  0  0  0  0  0
   -1.0913    0.4601   -5.9159 C   0  0  0  0  0  0  0  0  0  0  0  0
    1.1819   -2.5798    0.1595 H   0  0  0  0  0  0  0  0  0  0  0  0
   -0.4016   -3.3323    0.2708 H   0  0  0  0  0  0  0  0  0  0  0  0
   -0.2521   -1.5920    0.4684 H   0  0  0  0  0  0  0  0  0  0  0  0
    0.2739   -3.1979   -2.0888 H   0  0  0  0  0  0  0  0  0  0  0  0
   -1.1348   -2.1840   -1.8092 H   0  0  0  0  0  0  0  0  0  0  0  0
    1.7914   -1.2783   -1.9506 H   0  0  0  0  0  0  0  0  0  0  0  0
   -1.6158   -0.0457   -2.1698 H   0  0  0  0  0  0  0  0  0  0  0  0
   -2.3281    2.1153   -1.1904 H   0  0  0  0  0  0  0  0  0  0  0  0
   -0.6406    3.5261   -0.0087 H   0  0  0  0  0  0  0  0  0  0  0  0
    1.7074    2.6876    0.1442 H   0  0  0  0  0  0  0  0  0  0  0  0
    2.2736    0.5072   -0.8691 H   0  0  0  0  0  0  0  0  0  0  0  0
   -0.1700   -1.4924   -6.0227 H   0  0  0  0  0  0  0  0  0  0  0  0
   -1.9085   -1.5251   -5.5948 H   0  0  0  0  0  0  0  0  0  0  0  0
   -0.1444    0.9799   -5.7898 H   0  0  0  0  0  0  0  0  0  0  0  0
   -1.3597    0.4856   -6.9674 H   0  0  0  0  0  0  0  0  0  0  0  0
   -1.8630    0.9741   -5.3473 H   0  0  0  0  0  0  0  0  0  0  0  0
  1  2  1  0  0  0  0
  2  3  1  0  0  0  0
  3  4  1  0  0  0  0
  4  5  4  0  0  0  0
  5  6  4  0  0  0  0
  6  7  4  0  0  0  0
  7  8  4  0  0  0  0
  4  9  4  0  0  0  0
  8  9  4  0  0  0  0
  3 10  1  0  0  0  0
 10 11  2  0  0  0  0
 10 12  1  0  0  0  0
 12 13  1  0  0  0  0
 13 14  1  0  0  0  0
  1 15  1  0  0  0  0
  1 16  1  0  0  0  0
  1 17  1  0  0  0  0
  2 18  1  0  0  0  0
  2 19  1  0  0  0  0
  3 20  1  0  0  0  0
  5 21  1  0  0  0  0
  6 22  1  0  0  0  0
  7 23  1  0  0  0  0
  8 24  1  0  0  0  0
  9 25  1  0  0  0  0
 13 26  1  0  0  0  0
 13 27  1  0  0  0  0
 14 28  1  0  0  0  0
 14 29  1  0  0  0  0
 14 30  1  0  0  0  0
M  CHG  1   1   1
M  END
