60

C         -0.36148       -0.28956        0.82476
C         -0.26483       -0.02343        2.31697
N          1.09128        0.47808        2.72839
C          1.32163        1.86445        2.51728
C          1.84660        2.36822        1.37761
C          2.39050        1.55796        0.29994
C          2.64831        2.03592       -0.92702
C          3.19995        1.31678       -2.14343
N          3.44958        0.00046       -2.32461
C          2.78856       -1.09538       -1.58622
C          1.96055       -2.00010       -2.48661
C          4.30279       -0.16693       -3.43319
C          4.13586        0.99478       -4.19520
N          3.52175        1.92000       -3.31744
C          3.36958        3.37164       -3.54885
C          1.96510        3.72139       -4.00286
C          4.59383        1.06821       -5.52740
Br         4.16303        2.52172       -6.67440
C          5.32546       -0.04429       -6.00531
C          5.59904       -1.16354       -5.18106
C          5.09336       -1.24468       -3.86935
Br         5.55220       -2.67115       -2.70049
Cl         6.55693       -2.48000       -5.80725
Cl         5.92001       -0.03321       -7.64764
N          1.04034        2.60498        3.68171
C          0.99196        1.68897        4.75379
C          1.10229        0.37875        4.18595
C          1.23203       -0.78116        4.94789
Br         1.61732       -2.43837        4.08670
C          1.14752       -0.65723        6.33795
Cl         1.27091       -2.07865        7.33881
C          0.95713        0.62031        6.92873
C          0.88885        1.80332        6.13947
Br         0.64509        3.48333        7.01196
Cl         0.82234        0.72246        8.67057
C          0.99379        4.05715        3.78503
C          2.35865        4.65295        4.09192
H         -0.24760        0.62521        0.23772
H         -1.34409       -0.70780        0.58258
H          0.39539       -1.01200        0.51084
H         -1.04404        0.69792        2.60195
H         -0.51637       -0.96427        2.81838
H          1.97941        3.44157        1.28487
H          2.63024        0.53958        0.58598
H          2.41793        3.08211       -1.09226
H          3.52931       -1.64250       -0.99994
H          2.07584       -0.67378       -0.88644
H          2.55957       -2.50404       -3.24727
H          1.45960       -2.76783       -1.88834
H          1.19226       -1.41766       -3.00584
H          3.61367        3.90529       -2.62457
H          4.12307        3.71973       -4.25572
H          1.23010        3.47167       -3.23155
H          1.88756        4.79230       -4.21246
H          1.68670        3.16951       -4.90480
H          0.63880        4.47929        2.83587
H          0.23875        4.38311        4.50311
H          3.06217        4.47024        3.27357
H          2.27325        5.73646        4.22294
H          2.79998        4.23223        4.99923
