 xtb: 6.7.1 (edcfbbe)
          12202402143D

 29 30  0     0  0            999 V2000
   -1.3392   -1.9573    2.1147 Cl  0  0  0  0  0  0  0  0  0  0  0  0
   -0.1833   -1.0218    1.2680 C   0  0  0  0  0  0  0  0  0  0  0  0
   -0.3916   -0.7025   -0.0717 C   0  0  0  0  0  0  0  0  0  0  0  0
    0.5432    0.0535   -0.7409 C   0  0  0  0  0  0  0  0  0  0  0  0
    1.7062    0.5008   -0.0960 C   0  0  0  0  0  0  0  0  0  0  0  0
    1.9018    0.1695    1.2508 C   0  0  0  0  0  0  0  0  0  0  0  0
    0.9647   -0.5816    1.9253 C   0  0  0  0  0  0  0  0  0  0  0  0
    2.6397    1.2992   -0.8779 C   0  0  0  0  0  0  0  0  0  0  0  0
    2.4423    1.6824   -2.0091 O   0  0  0  0  0  0  0  0  0  0  0  0
    3.9827    1.6924   -0.1974 C   0  0  0  0  0  0  0  0  0  0  0  0
    4.8246    2.3091   -1.1838 N   0  0  0  0  0  0  0  0  0  0  0  0
    5.8272    1.6876   -1.8700 C   0  0  0  0  0  0  0  0  0  0  0  0
    6.2445    2.5329   -2.8483 C   0  0  0  0  0  0  0  0  0  0  0  0
    5.4619    3.6436   -2.7496 N   0  0  0  0  0  0  0  0  0  0  0  0
    4.5924    3.5050   -1.7441 C   0  0  0  0  0  0  0  0  0  0  0  0
    3.6076    4.5205   -1.3360 C   0  0  0  0  0  0  0  0  0  0  0  0
    5.5571    4.7770   -3.4909 O   0  0  0  0  0  0  0  0  0  0  0  0
   -1.2812   -1.0464   -0.5742 H   0  0  0  0  0  0  0  0  0  0  0  0
    0.3995    0.3126   -1.7789 H   0  0  0  0  0  0  0  0  0  0  0  0
    2.7772    0.5028    1.7852 H   0  0  0  0  0  0  0  0  0  0  0  0
    1.1119   -0.8328    2.9634 H   0  0  0  0  0  0  0  0  0  0  0  0
    3.7764    2.3929    0.6154 H   0  0  0  0  0  0  0  0  0  0  0  0
    4.4823    0.8078    0.1975 H   0  0  0  0  0  0  0  0  0  0  0  0
    6.1739    0.7059   -1.6198 H   0  0  0  0  0  0  0  0  0  0  0  0
    7.0122    2.4210   -3.5866 H   0  0  0  0  0  0  0  0  0  0  0  0
    2.5978    4.1790   -1.5656 H   0  0  0  0  0  0  0  0  0  0  0  0
    3.6664    4.7143   -0.2660 H   0  0  0  0  0  0  0  0  0  0  0  0
    3.7954    5.4447   -1.8764 H   0  0  0  0  0  0  0  0  0  0  0  0
    5.8573    4.5672   -4.3907 H   0  0  0  0  0  0  0  0  0  0  0  0
  1  2  1  0  0  0  0
  2  3  4  0  0  0  0
  3  4  4  0  0  0  0
  4  5  4  0  0  0  0
  5  6  4  0  0  0  0
  2  7  4  0  0  0  0
  6  7  4  0  0  0  0
  5  8  1  0  0  0  0
  8  9  2  0  0  0  0
  8 10  1  0  0  0  0
 10 11  1  0  0  0  0
 11 12  4  0  0  0  0
 12 13  2  0  0  0  0
 13 14  1  0  0  0  0
 11 15  4  0  0  0  0
 14 15  4  0  0  0  0
 15 16  1  0  0  0  0
 14 17  1  0  0  0  0
  3 18  1  0  0  0  0
  4 19  1  0  0  0  0
  6 20  1  0  0  0  0
  7 21  1  0  0  0  0
 10 22  1  0  0  0  0
 10 23  1  0  0  0  0
 12 24  1  0  0  0  0
 13 25  1  0  0  0  0
 16 26  1  0  0  0  0
 16 27  1  0  0  0  0
 16 28  1  0  0  0  0
 17 29  1  0  0  0  0
M  CHG  1   1   1
M  END
