56

C          0.17017       -0.09947       -0.76792
C         -0.20435       -1.46426       -1.31762
O          0.43060       -2.51862       -0.56611
C          1.70169       -2.81840       -0.95242
O          2.34071       -2.21356       -1.80141
C          2.23823       -4.03629       -0.23351
N          2.10057       -4.10094        1.25114
C          2.18119       -3.08412        2.15539
C          2.49513       -1.61962        1.89482
C          3.95263       -1.24997        1.95828
C          4.94118       -1.99875        1.30565
C          6.27609       -1.58849        1.32356
C          6.64161       -0.42542        1.99383
C          5.67175        0.33344        2.64009
C          4.33599       -0.06889        2.61175
N          1.92916       -3.63395        3.37626
C          1.86014       -5.02133        3.27830
C          1.98025       -5.32209        1.92336
C          1.97467       -6.63776        1.45703
C          1.83961       -7.64127        2.42490
C          1.71194       -7.33597        3.79021
C          1.71611       -6.01335        4.24902
C          1.65045       -2.88800        4.62454
C          2.73962       -1.95838        5.11632
O          2.56013       -0.74115        5.14482
C          3.98372       -2.52303        5.69352
C          4.67203       -3.58257        5.09708
C          5.83988       -4.07245        5.68629
C          6.32191       -3.50450        6.86494
C          5.64656       -2.43674        7.45289
C          4.48259       -1.94045        6.86549
H         -0.07421       -0.03259        0.29700
H         -0.36106        0.69283       -1.30302
H          1.24512        0.08461       -0.86185
H         -1.28464       -1.61387       -1.22448
H          0.03983       -1.54400       -2.38369
H          1.71610       -4.89317       -0.67366
H          3.30266       -4.14502       -0.46268
H          2.10286       -1.35497        0.92008
H          1.89849       -1.06308        2.62230
H          4.70488       -2.90046        0.75393
H          7.03396       -2.16738        0.80024
H          7.67984       -0.10213        2.00174
H          5.95286        1.24791        3.15786
H          3.59912        0.55894        3.11255
H          2.07630       -6.88442        0.40744
H          1.83441       -8.68712        2.11399
H          1.61115       -8.15088        4.50879
H          1.62802       -5.78924        5.30509
H          0.74794       -2.29294        4.43645
H          1.39566       -3.57240        5.43907
H          4.35662       -4.01636        4.15677
H          6.39031       -4.88647        5.21914
H          7.23671       -3.88219        7.31777
H          6.03374       -1.98390        8.36347
H          3.97281       -1.09601        7.32689
