 xtb: 6.7.1 (edcfbbe)
          12202402143D

 35 34  0     0  0            999 V2000
    2.1677    0.1573   -0.2248 C   0  0  0  0  0  0  0  0  0  0  0  0
    0.9682    0.9121   -0.7861 C   0  0  0  0  0  0  0  0  0  0  0  0
    0.6734    0.5624   -2.2500 C   0  0  0  0  0  0  0  0  0  0  0  0
    0.1887   -0.8780   -2.4727 C   0  0  0  0  0  0  0  0  0  0  0  0
   -1.2716   -1.0612   -2.7236 N   0  0  0  0  0  0  0  0  0  0  0  0
   -1.7304   -0.2665   -3.9148 C   0  0  0  0  0  0  0  0  0  0  0  0
   -0.8326   -0.3268   -5.1411 C   0  0  0  0  0  0  0  0  0  0  0  0
   -1.5736   -2.5066   -3.0167 C   0  0  0  0  0  0  0  0  0  0  0  0
   -0.7241   -3.5688   -2.3307 C   0  0  0  0  0  0  0  0  0  0  0  0
   -2.0854   -0.5730   -1.5650 C   0  0  0  0  0  0  0  0  0  0  0  0
   -1.9855   -1.3690   -0.2741 C   0  0  0  0  0  0  0  0  0  0  0  0
    1.9979   -0.9169   -0.1866 H   0  0  0  0  0  0  0  0  0  0  0  0
    2.3759    0.4952    0.7863 H   0  0  0  0  0  0  0  0  0  0  0  0
    3.0513    0.3404   -0.8309 H   0  0  0  0  0  0  0  0  0  0  0  0
    0.0961    0.7295   -0.1564 H   0  0  0  0  0  0  0  0  0  0  0  0
    1.1820    1.9808   -0.7382 H   0  0  0  0  0  0  0  0  0  0  0  0
   -0.0334    1.2871   -2.6519 H   0  0  0  0  0  0  0  0  0  0  0  0
    1.6027    0.6925   -2.8076 H   0  0  0  0  0  0  0  0  0  0  0  0
    0.7063   -1.3143   -3.3262 H   0  0  0  0  0  0  0  0  0  0  0  0
    0.4430   -1.4663   -1.5936 H   0  0  0  0  0  0  0  0  0  0  0  0
   -2.7257   -0.6341   -4.1742 H   0  0  0  0  0  0  0  0  0  0  0  0
   -1.8356    0.7758   -3.6117 H   0  0  0  0  0  0  0  0  0  0  0  0
   -0.6335   -1.3421   -5.4731 H   0  0  0  0  0  0  0  0  0  0  0  0
   -1.3473    0.1831   -5.9519 H   0  0  0  0  0  0  0  0  0  0  0  0
    0.1115    0.1847   -4.9818 H   0  0  0  0  0  0  0  0  0  0  0  0
   -2.6246   -2.6646   -2.7683 H   0  0  0  0  0  0  0  0  0  0  0  0
   -1.4614   -2.6513   -4.0917 H   0  0  0  0  0  0  0  0  0  0  0  0
   -0.7192   -3.4889   -1.2495 H   0  0  0  0  0  0  0  0  0  0  0  0
   -1.1555   -4.5349   -2.5839 H   0  0  0  0  0  0  0  0  0  0  0  0
    0.3003   -3.5699   -2.6907 H   0  0  0  0  0  0  0  0  0  0  0  0
   -1.7814    0.4565   -1.3724 H   0  0  0  0  0  0  0  0  0  0  0  0
   -3.1299   -0.5608   -1.8856 H   0  0  0  0  0  0  0  0  0  0  0  0
   -0.9662   -1.4448    0.0928 H   0  0  0  0  0  0  0  0  0  0  0  0
   -2.5627   -0.8401    0.4811 H   0  0  0  0  0  0  0  0  0  0  0  0
   -2.4123   -2.3625   -0.3677 H   0  0  0  0  0  0  0  0  0  0  0  0
  1  2  1  0  0  0  0
  2  3  1  0  0  0  0
  3  4  1  0  0  0  0
  4  5  1  0  0  0  0
  5  6  1  0  0  0  0
  6  7  1  0  0  0  0
  5  8  1  0  0  0  0
  8  9  1  0  0  0  0
  5 10  1  0  0  0  0
 10 11  1  0  0  0  0
  1 12  1  0  0  0  0
  1 13  1  0  0  0  0
  1 14  1  0  0  0  0
  2 15  1  0  0  0  0
  2 16  1  0  0  0  0
  3 17  1  0  0  0  0
  3 18  1  0  0  0  0
  4 19  1  0  0  0  0
  4 20  1  0  0  0  0
  6 21  1  0  0  0  0
  6 22  1  0  0  0  0
  7 23  1  0  0  0  0
  7 24  1  0  0  0  0
  7 25  1  0  0  0  0
  8 26  1  0  0  0  0
  8 27  1  0  0  0  0
  9 28  1  0  0  0  0
  9 29  1  0  0  0  0
  9 30  1  0  0  0  0
 10 31  1  0  0  0  0
 10 32  1  0  0  0  0
 11 33  1  0  0  0  0
 11 34  1  0  0  0  0
 11 35  1  0  0  0  0
M  CHG  1   1   1
M  END
