 xtb: 6.7.1 (edcfbbe)
          12202402143D

 48 50  0     0  0            999 V2000
    2.0070   -0.8577    1.3623 C   0  0  0  0  0  0  0  0  0  0  0  0
    0.6487   -0.2525    1.6942 C   0  0  0  0  0  0  0  0  0  0  0  0
    0.7730    1.1539    2.2719 C   0  0  0  0  0  0  0  0  0  0  0  0
   -0.5542    1.7133    2.7812 C   0  0  0  0  0  0  0  0  0  0  0  0
   -1.5097    1.1162    3.1619 O   0  0  0  0  0  0  0  0  0  0  0  0
   -0.5201    3.0686    2.6936 O   0  0  0  0  0  0  0  0  0  0  0  0
    0.7454    3.4839    2.2006 C   0  0  0  0  0  0  0  0  0  0  0  0
    1.2402    2.3011    1.3611 C   0  0  0  0  0  0  0  0  0  0  0  0
    0.5276    2.2305   -0.0087 C   0  0  0  0  0  0  0  0  0  0  0  0
    0.5195    3.5240   -0.7382 C   0  0  0  0  0  0  0  0  0  0  0  0
    1.5059    4.1351   -1.4621 C   0  0  0  0  0  0  0  0  0  0  0  0
    1.0127    5.3135   -1.9327 N   0  0  0  0  0  0  0  0  0  0  0  0
   -0.2423    5.4259   -1.5172 C   0  0  0  0  0  0  0  0  0  0  0  0
   -0.5685    4.3606   -0.7853 N   0  0  0  0  0  0  0  0  0  0  0  0
   -1.8533    4.1299   -0.1746 C   0  0  0  0  0  0  0  0  0  0  0  0
    1.7370    6.2357   -2.7862 C   0  0  0  0  0  0  0  0  0  0  0  0
    2.1983    5.5270   -4.0392 C   0  0  0  0  0  0  0  0  0  0  0  0
    3.5382    5.2243   -4.2258 C   0  0  0  0  0  0  0  0  0  0  0  0
    3.9376    4.5624   -5.3757 C   0  0  0  0  0  0  0  0  0  0  0  0
    3.0049    4.1981   -6.3274 C   0  0  0  0  0  0  0  0  0  0  0  0
    1.6545    4.4906   -6.1535 C   0  0  0  0  0  0  0  0  0  0  0  0
    1.2649    5.1551   -4.9996 C   0  0  0  0  0  0  0  0  0  0  0  0
    0.6599    4.1042   -7.2002 C   0  0  0  0  0  0  0  0  0  0  0  0
    2.5297   -0.2699    0.6106 H   0  0  0  0  0  0  0  0  0  0  0  0
    1.8808   -1.8656    0.9780 H   0  0  0  0  0  0  0  0  0  0  0  0
    2.6307   -0.9104    2.2510 H   0  0  0  0  0  0  0  0  0  0  0  0
    0.0142   -0.2518    0.8075 H   0  0  0  0  0  0  0  0  0  0  0  0
    0.1477   -0.8666    2.4441 H   0  0  0  0  0  0  0  0  0  0  0  0
    1.4422    1.1070    3.1404 H   0  0  0  0  0  0  0  0  0  0  0  0
    1.4202    3.6680    3.0444 H   0  0  0  0  0  0  0  0  0  0  0  0
    0.6112    4.4190    1.6558 H   0  0  0  0  0  0  0  0  0  0  0  0
    2.3201    2.3343    1.2247 H   0  0  0  0  0  0  0  0  0  0  0  0
    1.0328    1.4830   -0.6212 H   0  0  0  0  0  0  0  0  0  0  0  0
   -0.5016    1.9050    0.1470 H   0  0  0  0  0  0  0  0  0  0  0  0
    2.5017    3.8078   -1.6797 H   0  0  0  0  0  0  0  0  0  0  0  0
   -0.8947    6.2501   -1.7312 H   0  0  0  0  0  0  0  0  0  0  0  0
   -1.7434    3.9053    0.8878 H   0  0  0  0  0  0  0  0  0  0  0  0
   -2.4693    5.0194   -0.2840 H   0  0  0  0  0  0  0  0  0  0  0  0
   -2.3579    3.2923   -0.6589 H   0  0  0  0  0  0  0  0  0  0  0  0
    2.5986    6.6210   -2.2343 H   0  0  0  0  0  0  0  0  0  0  0  0
    1.0721    7.0668   -3.0301 H   0  0  0  0  0  0  0  0  0  0  0  0
    4.2706    5.5170   -3.4881 H   0  0  0  0  0  0  0  0  0  0  0  0
    4.9812    4.3349   -5.5268 H   0  0  0  0  0  0  0  0  0  0  0  0
    3.3220    3.6845   -7.2221 H   0  0  0  0  0  0  0  0  0  0  0  0
    0.2210    5.3979   -4.8525 H   0  0  0  0  0  0  0  0  0  0  0  0
    0.8513    4.6600   -8.1168 H   0  0  0  0  0  0  0  0  0  0  0  0
    0.7462    3.0452   -7.4358 H   0  0  0  0  0  0  0  0  0  0  0  0
   -0.3570    4.3116   -6.8782 H   0  0  0  0  0  0  0  0  0  0  0  0
  1  2  1  0  0  0  0
  2  3  1  0  0  0  0
  3  4  1  0  0  0  0
  4  5  2  0  0  0  0
  4  6  1  0  0  0  0
  6  7  1  0  0  0  0
  3  8  1  0  0  0  0
  7  8  1  0  0  0  0
  8  9  1  0  0  0  0
  9 10  1  0  0  0  0
 10 11  2  0  0  0  0
 11 12  4  0  0  0  0
 12 13  4  0  0  0  0
 10 14  1  0  0  0  0
 13 14  4  0  0  0  0
 14 15  1  0  0  0  0
 12 16  1  0  0  0  0
 16 17  1  0  0  0  0
 17 18  4  0  0  0  0
 18 19  4  0  0  0  0
 19 20  4  0  0  0  0
 20 21  4  0  0  0  0
 17 22  4  0  0  0  0
 21 22  4  0  0  0  0
 21 23  1  0  0  0  0
  1 24  1  0  0  0  0
  1 25  1  0  0  0  0
  1 26  1  0  0  0  0
  2 27  1  0  0  0  0
  2 28  1  0  0  0  0
  3 29  1  0  0  0  0
  7 30  1  0  0  0  0
  7 31  1  0  0  0  0
  8 32  1  0  0  0  0
  9 33  1  0  0  0  0
  9 34  1  0  0  0  0
 11 35  1  0  0  0  0
 13 36  1  0  0  0  0
 15 37  1  0  0  0  0
 15 38  1  0  0  0  0
 15 39  1  0  0  0  0
 16 40  1  0  0  0  0
 16 41  1  0  0  0  0
 18 42  1  0  0  0  0
 19 43  1  0  0  0  0
 20 44  1  0  0  0  0
 22 45  1  0  0  0  0
 23 46  1  0  0  0  0
 23 47  1  0  0  0  0
 23 48  1  0  0  0  0
M  CHG  1   1   1
M  END
