31

C          1.41676       -0.88758       -1.83075
O          0.98241        0.22183       -1.05033
C          1.74253        1.39346       -1.31891
C          1.18797        2.62237       -0.57367
N          1.18613        2.54149        0.98203
C          2.58351        2.19036        1.48533
C          0.82287        3.92469        1.51513
C          0.19998        1.47849        1.55158
C         -1.30026        1.76352        1.34906
O         -1.64697        1.83065       -0.02857
C         -3.05117        1.97219       -0.22002
H          0.78299       -1.74519       -1.59015
H          2.45387       -1.13829       -1.58868
H          1.31944       -0.66813       -2.89823
H          2.79164        1.21983       -1.05715
H          1.70180        1.60640       -2.39421
H          1.81515        3.48641       -0.82737
H          0.17317        2.85681       -0.89562
H          3.30185        2.87408        1.02338
H          2.59872        2.30497        2.57365
H          2.80655        1.15361        1.21976
H         -0.11858        4.24449        1.06073
H          0.72976        3.86488        2.60347
H          1.62117        4.62186        1.24185
H          0.47918        0.50983        1.13630
H          0.39631        1.43618        2.63036
H         -1.86337        0.94806        1.81933
H         -1.59063        2.69442        1.84763
H         -3.58587        1.12206        0.21419
H         -3.40195        2.90782        0.22563
H         -3.24975        1.99913       -1.29466
