 xtb: 6.7.1 (edcfbbe)
          12202402143D

 33 33  0     0  0            999 V2000
    1.4180   -0.4439    0.3923 C   0  0  0  0  0  0  0  0  0  0  0  0
    0.3093    0.0266    1.3200 C   0  0  0  0  0  0  0  0  0  0  0  0
    0.7217    0.9910    2.3938 N   0  0  0  0  0  0  0  0  0  0  0  0
    1.1288    2.2849    1.7703 C   0  0  0  0  0  0  0  0  0  0  0  0
    1.3727    3.4044    2.7769 C   0  0  0  0  0  0  0  0  0  0  0  0
    0.1351    3.6329    3.6375 C   0  0  0  0  0  0  0  0  0  0  0  0
   -0.2712    2.3225    4.3023 C   0  0  0  0  0  0  0  0  0  0  0  0
   -0.4766    1.2325    3.2580 C   0  0  0  0  0  0  0  0  0  0  0  0
    1.8484    0.4450    3.1813 C   0  0  0  0  0  0  0  0  0  0  0  0
    1.6066   -0.9395    3.8069 C   0  0  0  0  0  0  0  0  0  0  0  0
    0.5422   -1.4944    3.8507 O   0  0  0  0  0  0  0  0  0  0  0  0
    2.7458   -1.3851    4.2863 O   0  0  0  0  0  0  0  0  0  0  0  0
    2.7591   -2.6449    4.9681 C   0  0  0  0  0  0  0  0  0  0  0  0
    1.9121    0.3749   -0.1232 H   0  0  0  0  0  0  0  0  0  0  0  0
    0.9623   -1.0751   -0.3667 H   0  0  0  0  0  0  0  0  0  0  0  0
    2.1604   -1.0474    0.9065 H   0  0  0  0  0  0  0  0  0  0  0  0
   -0.4679    0.5166    0.7307 H   0  0  0  0  0  0  0  0  0  0  0  0
   -0.1334   -0.8389    1.8155 H   0  0  0  0  0  0  0  0  0  0  0  0
    0.3220    2.5867    1.0989 H   0  0  0  0  0  0  0  0  0  0  0  0
    2.0283    2.1186    1.1770 H   0  0  0  0  0  0  0  0  0  0  0  0
    1.6076    4.3078    2.2132 H   0  0  0  0  0  0  0  0  0  0  0  0
    2.2371    3.1885    3.4057 H   0  0  0  0  0  0  0  0  0  0  0  0
    0.3393    4.3901    4.3925 H   0  0  0  0  0  0  0  0  0  0  0  0
   -0.6835    3.9980    3.0151 H   0  0  0  0  0  0  0  0  0  0  0  0
    0.4703    2.0270    5.0456 H   0  0  0  0  0  0  0  0  0  0  0  0
   -1.2155    2.4485    4.8324 H   0  0  0  0  0  0  0  0  0  0  0  0
   -0.7436    0.2892    3.7355 H   0  0  0  0  0  0  0  0  0  0  0  0
   -1.2931    1.5294    2.5965 H   0  0  0  0  0  0  0  0  0  0  0  0
    2.7393    0.3826    2.5543 H   0  0  0  0  0  0  0  0  0  0  0  0
    2.0759    1.1229    4.0056 H   0  0  0  0  0  0  0  0  0  0  0  0
    1.7920   -3.1383    4.8712 H   0  0  0  0  0  0  0  0  0  0  0  0
    3.5457   -3.2498    4.5214 H   0  0  0  0  0  0  0  0  0  0  0  0
    2.9851   -2.4605    6.0177 H   0  0  0  0  0  0  0  0  0  0  0  0
  1  2  1  0  0  0  0
  2  3  1  0  0  0  0
  3  4  1  0  0  0  0
  4  5  1  0  0  0  0
  5  6  1  0  0  0  0
  6  7  1  0  0  0  0
  3  8  1  0  0  0  0
  7  8  1  0  0  0  0
  3  9  1  0  0  0  0
  9 10  1  0  0  0  0
 10 11  2  0  0  0  0
 10 12  1  0  0  0  0
 12 13  1  0  0  0  0
  1 14  1  0  0  0  0
  1 15  1  0  0  0  0
  1 16  1  0  0  0  0
  2 17  1  0  0  0  0
  2 18  1  0  0  0  0
  4 19  1  0  0  0  0
  4 20  1  0  0  0  0
  5 21  1  0  0  0  0
  5 22  1  0  0  0  0
  6 23  1  0  0  0  0
  6 24  1  0  0  0  0
  7 25  1  0  0  0  0
  7 26  1  0  0  0  0
  8 27  1  0  0  0  0
  8 28  1  0  0  0  0
  9 29  1  0  0  0  0
  9 30  1  0  0  0  0
 13 31  1  0  0  0  0
 13 32  1  0  0  0  0
 13 33  1  0  0  0  0
M  CHG  1   1   1
M  END
