35

C          1.87679        0.30886        0.00844
C          0.90472        1.03247       -0.91152
C          0.87994        0.47945       -2.33974
C          0.35507       -0.95226       -2.52654
N         -1.17443       -1.10580       -2.73974
C         -1.69238       -0.16402       -3.89380
C         -0.93522       -0.28201       -5.20854
C         -1.50902       -2.56055       -3.19069
C         -1.03425       -3.67671       -2.27592
C         -2.02076       -0.68867       -1.50903
C         -1.69533       -1.37117       -0.19329
H          1.58396       -0.73051        0.17566
H          1.90631        0.80531        0.98394
H          2.89018        0.31904       -0.40484
H         -0.09008        1.03326       -0.46306
H          1.21367        2.08422       -0.96405
H          0.35622        1.19209       -2.98087
H          1.91783        0.48689       -2.70099
H          0.82019       -1.38321       -3.42098
H          0.64818       -1.58852       -1.69137
H         -2.74996       -0.41000       -4.04776
H         -1.64673        0.86552       -3.52404
H         -1.05120       -1.26459       -5.67179
H         -1.33921        0.44799       -5.91903
H          0.13048       -0.06647       -5.10406
H         -2.59405       -2.61481       -3.33226
H         -1.02591       -2.70763       -4.16040
H         -1.63324       -3.75853       -1.37011
H         -1.15291       -4.63389       -2.79752
H          0.02007       -3.59636       -2.00544
H         -1.89877        0.39310       -1.39913
H         -3.07111       -0.86966       -1.76763
H         -0.63645       -1.57470       -0.04015
H         -2.02369       -0.73027        0.63319
H         -2.25583       -2.30178       -0.08033
