32

C          0.98018        0.12322       -0.18519
C          0.44074        0.04020       -1.60606
C          0.96457       -1.15735       -2.39823
N          0.60076       -2.48770       -1.76658
C         -0.88750       -2.74690       -1.59484
C         -1.74683       -2.55684       -2.84381
C         -1.51856       -3.56675       -3.95484
C          1.34759       -3.65774       -2.38631
C          2.81186       -3.72328       -1.94478
C          3.01030       -3.88862       -0.44532
H          0.60007       -0.69007        0.43975
H          0.67064        1.06561        0.27822
H          2.07401        0.08507       -0.17646
H         -0.65392        0.04758       -1.58264
H          0.73893        0.95165       -2.13864
H          0.58395       -1.15807       -3.42424
H          2.05639       -1.10569       -2.44237
H          0.94266       -2.44016       -0.80079
H         -0.99642       -3.75829       -1.18694
H         -1.22517       -2.05891       -0.81192
H         -2.79434       -2.64869       -2.52862
H         -1.64870       -1.54258       -3.24412
H         -1.48809       -4.58887       -3.56550
H         -2.33418       -3.50877       -4.68356
H         -0.59313       -3.36399       -4.49793
H          0.83426       -4.57717       -2.08546
H          1.28865       -3.55391       -3.47262
H          3.27138       -4.58438       -2.44592
H          3.36516       -2.84356       -2.28901
H          2.41487       -4.72064       -0.05713
H          4.06354       -4.09604       -0.22923
H          2.73976       -2.98037        0.10088
