 xtb: 6.7.1 (edcfbbe)
          12202402143D

 40 40  0     0  0            999 V2000
    1.0581   -0.3868    0.1846 C   0  0  0  0  0  0  0  0  0  0  0  0
    0.7379    1.1010    0.1064 C   0  0  0  0  0  0  0  0  0  0  0  0
    1.2219    1.7550   -1.1887 C   0  0  0  0  0  0  0  0  0  0  0  0
    0.5913    1.1995   -2.4677 C   0  0  0  0  0  0  0  0  0  0  0  0
   -0.9340    1.2997   -2.5328 C   0  0  0  0  0  0  0  0  0  0  0  0
   -1.4953    2.7155   -2.3809 C   0  0  0  0  0  0  0  0  0  0  0  0
   -0.9682    3.7315   -3.3973 C   0  0  0  0  0  0  0  0  0  0  0  0
   -1.2257    3.3722   -4.8611 C   0  0  0  0  0  0  0  0  0  0  0  0
   -2.7115    3.3278   -5.2392 C   0  0  0  0  0  0  0  0  0  0  0  0
   -3.3239    4.6293   -5.1000 N   0  0  0  0  0  0  0  0  0  0  0  0
   -3.9791    5.0932   -4.0020 C   0  0  0  0  0  0  0  0  0  0  0  0
   -4.3286    6.3860   -4.2518 C   0  0  0  0  0  0  0  0  0  0  0  0
   -3.8751    6.6931   -5.4984 N   0  0  0  0  0  0  0  0  0  0  0  0
   -3.2691    5.6161   -5.9904 C   0  0  0  0  0  0  0  0  0  0  0  0
   -4.0465    7.9595   -6.1579 C   0  0  0  0  0  0  0  0  0  0  0  0
    0.5045   -0.9504   -0.5623 H   0  0  0  0  0  0  0  0  0  0  0  0
    0.7932   -0.7761    1.1641 H   0  0  0  0  0  0  0  0  0  0  0  0
    2.1207   -0.5551    0.0261 H   0  0  0  0  0  0  0  0  0  0  0  0
   -0.3376    1.2491    0.2234 H   0  0  0  0  0  0  0  0  0  0  0  0
    1.2259    1.6095    0.9412 H   0  0  0  0  0  0  0  0  0  0  0  0
    1.0405    2.8307   -1.1274 H   0  0  0  0  0  0  0  0  0  0  0  0
    2.3028    1.6158   -1.2627 H   0  0  0  0  0  0  0  0  0  0  0  0
    1.0306    1.7208   -3.3217 H   0  0  0  0  0  0  0  0  0  0  0  0
    0.8621    0.1476   -2.5676 H   0  0  0  0  0  0  0  0  0  0  0  0
   -1.2687    0.8690   -3.4800 H   0  0  0  0  0  0  0  0  0  0  0  0
   -1.3634    0.6855   -1.7403 H   0  0  0  0  0  0  0  0  0  0  0  0
   -2.5859    2.6571   -2.4350 H   0  0  0  0  0  0  0  0  0  0  0  0
   -1.2502    3.0869   -1.3854 H   0  0  0  0  0  0  0  0  0  0  0  0
   -1.4032    4.7109   -3.1753 H   0  0  0  0  0  0  0  0  0  0  0  0
    0.1092    3.8283   -3.2657 H   0  0  0  0  0  0  0  0  0  0  0  0
   -0.7181    4.0965   -5.5020 H   0  0  0  0  0  0  0  0  0  0  0  0
   -0.8028    2.3918   -5.0739 H   0  0  0  0  0  0  0  0  0  0  0  0
   -2.8185    3.0028   -6.2760 H   0  0  0  0  0  0  0  0  0  0  0  0
   -3.2426    2.6279   -4.5936 H   0  0  0  0  0  0  0  0  0  0  0  0
   -4.1561    4.4890   -3.1357 H   0  0  0  0  0  0  0  0  0  0  0  0
   -4.8556    7.0897   -3.6403 H   0  0  0  0  0  0  0  0  0  0  0  0
   -2.8123    5.5500   -6.9587 H   0  0  0  0  0  0  0  0  0  0  0  0
   -3.6777    8.7640   -5.5215 H   0  0  0  0  0  0  0  0  0  0  0  0
   -3.4979    7.9664   -7.0968 H   0  0  0  0  0  0  0  0  0  0  0  0
   -5.1034    8.1373   -6.3620 H   0  0  0  0  0  0  0  0  0  0  0  0
  1  2  1  0  0  0  0
  2  3  1  0  0  0  0
  3  4  1  0  0  0  0
  4  5  1  0  0  0  0
  5  6  1  0  0  0  0
  6  7  1  0  0  0  0
  7  8  1  0  0  0  0
  8  9  1  0  0  0  0
  9 10  1  0  0  0  0
 10 11  4  0  0  0  0
 11 12  2  0  0  0  0
 12 13  4  0  0  0  0
 10 14  4  0  0  0  0
 13 14  4  0  0  0  0
 13 15  1  0  0  0  0
  1 16  1  0  0  0  0
  1 17  1  0  0  0  0
  1 18  1  0  0  0  0
  2 19  1  0  0  0  0
  2 20  1  0  0  0  0
  3 21  1  0  0  0  0
  3 22  1  0  0  0  0
  4 23  1  0  0  0  0
  4 24  1  0  0  0  0
  5 25  1  0  0  0  0
  5 26  1  0  0  0  0
  6 27  1  0  0  0  0
  6 28  1  0  0  0  0
  7 29  1  0  0  0  0
  7 30  1  0  0  0  0
  8 31  1  0  0  0  0
  8 32  1  0  0  0  0
  9 33  1  0  0  0  0
  9 34  1  0  0  0  0
 11 35  1  0  0  0  0
 12 36  1  0  0  0  0
 14 37  1  0  0  0  0
 15 38  1  0  0  0  0
 15 39  1  0  0  0  0
 15 40  1  0  0  0  0
M  CHG  1   1   1
M  END
