33

C         -0.34597        0.23121       -0.82010
C         -0.05430        1.70937       -0.64863
O          1.12179        2.14742       -1.30321
C          2.42775        1.95527       -0.74969
C          2.70066        2.70597        0.59125
N          2.80533        1.96509        1.95104
C          3.93138        0.94042        2.00265
C          3.14116        3.04541        3.00306
C          1.50597        1.31351        2.37437
C          2.98948        0.54870       -0.96094
C          2.92641        0.10560       -2.42061
H         -0.28261       -0.06073       -1.87240
H         -1.35048       -0.00307       -0.45413
H          0.35587       -0.39192       -0.26424
H         -0.87822        2.25829       -1.11905
H         -0.06102        2.01212        0.39673
H          3.02128        2.56016       -1.45239
H          3.67032        3.21043        0.48717
H          1.94144        3.48646        0.72773
H          4.81752        1.36711        1.52941
H          4.13821        0.70340        3.05206
H          3.60791        0.02459        1.50534
H          2.35544        3.80651        2.98168
H          3.18300        2.57114        3.98910
H          4.11120        3.48198        2.74915
H          0.72939        2.08065        2.41978
H          1.25834        0.52943        1.65910
H          1.64555        0.87234        3.36722
H          4.04285        0.52763       -0.66232
H          2.45566       -0.18580       -0.35628
H          3.49200        0.79137       -3.06029
H          3.36376       -0.89189       -2.52981
H          1.89913        0.06487       -2.79094
