 xtb: 6.7.1 (edcfbbe)
          12202402143D

 32 31  0     0  0            999 V2000
    1.1138    0.0540   -0.2030 C   0  0  0  0  0  0  0  0  0  0  0  0
    0.4446    0.0448   -1.5742 C   0  0  0  0  0  0  0  0  0  0  0  0
    0.8796   -1.1377   -2.4363 C   0  0  0  0  0  0  0  0  0  0  0  0
    0.6045   -2.4501   -1.7965 N   0  0  0  0  0  0  0  0  0  0  0  0
   -0.8503   -2.7414   -1.6059 C   0  0  0  0  0  0  0  0  0  0  0  0
   -1.7509   -2.6162   -2.8335 C   0  0  0  0  0  0  0  0  0  0  0  0
   -1.4915   -3.6260   -3.9453 C   0  0  0  0  0  0  0  0  0  0  0  0
    1.3750   -3.5506   -2.4394 C   0  0  0  0  0  0  0  0  0  0  0  0
    2.8046   -3.6278   -1.9066 C   0  0  0  0  0  0  0  0  0  0  0  0
    2.8679   -3.9031   -0.4070 C   0  0  0  0  0  0  0  0  0  0  0  0
    0.7392   -0.7358    0.4481 H   0  0  0  0  0  0  0  0  0  0  0  0
    0.9096    0.9967    0.2958 H   0  0  0  0  0  0  0  0  0  0  0  0
    2.1937   -0.0414   -0.2959 H   0  0  0  0  0  0  0  0  0  0  0  0
   -0.6395    0.0675   -1.4611 H   0  0  0  0  0  0  0  0  0  0  0  0
    0.7273    0.9504   -2.1119 H   0  0  0  0  0  0  0  0  0  0  0  0
    0.3853   -1.1128   -3.4075 H   0  0  0  0  0  0  0  0  0  0  0  0
    1.9569   -1.0738   -2.6008 H   0  0  0  0  0  0  0  0  0  0  0  0
    0.9936   -2.3799   -0.8461 H   0  0  0  0  0  0  0  0  0  0  0  0
   -0.9261   -3.7555   -1.2070 H   0  0  0  0  0  0  0  0  0  0  0  0
   -1.2188   -2.0545   -0.8413 H   0  0  0  0  0  0  0  0  0  0  0  0
   -2.7660   -2.7709   -2.4620 H   0  0  0  0  0  0  0  0  0  0  0  0
   -1.7186   -1.6034   -3.2352 H   0  0  0  0  0  0  0  0  0  0  0  0
   -1.4361   -4.6372   -3.5505 H   0  0  0  0  0  0  0  0  0  0  0  0
   -2.3127   -3.5938   -4.6554 H   0  0  0  0  0  0  0  0  0  0  0  0
   -0.5801   -3.4110   -4.4959 H   0  0  0  0  0  0  0  0  0  0  0  0
    0.8684   -4.4936   -2.2290 H   0  0  0  0  0  0  0  0  0  0  0  0
    1.3816   -3.3975   -3.5184 H   0  0  0  0  0  0  0  0  0  0  0  0
    3.2995   -4.4414   -2.4373 H   0  0  0  0  0  0  0  0  0  0  0  0
    3.3563   -2.7153   -2.1385 H   0  0  0  0  0  0  0  0  0  0  0  0
    2.2724   -4.7747   -0.1450 H   0  0  0  0  0  0  0  0  0  0  0  0
    3.8951   -4.1054   -0.1185 H   0  0  0  0  0  0  0  0  0  0  0  0
    2.5351   -3.0545    0.1912 H   0  0  0  0  0  0  0  0  0  0  0  0
  1  2  1  0  0  0  0
  2  3  1  0  0  0  0
  3  4  1  0  0  0  0
  4  5  1  0  0  0  0
  5  6  1  0  0  0  0
  6  7  1  0  0  0  0
  4  8  1  0  0  0  0
  8  9  1  0  0  0  0
  9 10  1  0  0  0  0
  1 11  1  0  0  0  0
  1 12  1  0  0  0  0
  1 13  1  0  0  0  0
  2 14  1  0  0  0  0
  2 15  1  0  0  0  0
  3 16  1  0  0  0  0
  3 17  1  0  0  0  0
  4 18  1  0  0  0  0
  5 19  1  0  0  0  0
  5 20  1  0  0  0  0
  6 21  1  0  0  0  0
  6 22  1  0  0  0  0
  7 23  1  0  0  0  0
  7 24  1  0  0  0  0
  7 25  1  0  0  0  0
  8 26  1  0  0  0  0
  8 27  1  0  0  0  0
  9 28  1  0  0  0  0
  9 29  1  0  0  0  0
 10 30  1  0  0  0  0
 10 31  1  0  0  0  0
 10 32  1  0  0  0  0
M  CHG  1   1   1
M  END
