 xtb: 6.7.1 (edcfbbe)
          12202402143D

 33 32  0     0  0            999 V2000
   -0.4004    0.3051   -0.8861 C   0  0  0  0  0  0  0  0  0  0  0  0
   -0.0076    1.7623   -0.6604 C   0  0  0  0  0  0  0  0  0  0  0  0
    1.2022    2.1966   -1.2599 O   0  0  0  0  0  0  0  0  0  0  0  0
    2.4825    1.9231   -0.7464 C   0  0  0  0  0  0  0  0  0  0  0  0
    2.7326    2.6544    0.6220 C   0  0  0  0  0  0  0  0  0  0  0  0
    2.8368    1.9710    1.9567 N   0  0  0  0  0  0  0  0  0  0  0  0
    4.0259    1.1003    2.0436 C   0  0  0  0  0  0  0  0  0  0  0  0
    2.9924    3.0414    2.9674 C   0  0  0  0  0  0  0  0  0  0  0  0
    1.6399    1.1861    2.3016 C   0  0  0  0  0  0  0  0  0  0  0  0
    2.9589    0.4693   -0.8950 C   0  0  0  0  0  0  0  0  0  0  0  0
    2.8582    0.0335   -2.3556 C   0  0  0  0  0  0  0  0  0  0  0  0
   -0.3732    0.0718   -1.9460 H   0  0  0  0  0  0  0  0  0  0  0  0
   -1.4181    0.1632   -0.5329 H   0  0  0  0  0  0  0  0  0  0  0  0
    0.2401   -0.3980   -0.3603 H   0  0  0  0  0  0  0  0  0  0  0  0
   -0.7525    2.3948   -1.1514 H   0  0  0  0  0  0  0  0  0  0  0  0
   -0.0261    2.0031    0.4093 H   0  0  0  0  0  0  0  0  0  0  0  0
    3.0961    2.4976   -1.4558 H   0  0  0  0  0  0  0  0  0  0  0  0
    3.6644    3.2120    0.5160 H   0  0  0  0  0  0  0  0  0  0  0  0
    1.9231    3.3853    0.6966 H   0  0  0  0  0  0  0  0  0  0  0  0
    4.8993    1.6102    1.6419 H   0  0  0  0  0  0  0  0  0  0  0  0
    4.2211    0.8487    3.0852 H   0  0  0  0  0  0  0  0  0  0  0  0
    3.8703    0.1772    1.4941 H   0  0  0  0  0  0  0  0  0  0  0  0
    2.1592    3.7403    2.9195 H   0  0  0  0  0  0  0  0  0  0  0  0
    3.0222    2.6089    3.9662 H   0  0  0  0  0  0  0  0  0  0  0  0
    3.9166    3.5913    2.7990 H   0  0  0  0  0  0  0  0  0  0  0  0
    0.7785    1.8416    2.4179 H   0  0  0  0  0  0  0  0  0  0  0  0
    1.4266    0.4534    1.5278 H   0  0  0  0  0  0  0  0  0  0  0  0
    1.8003    0.6619    3.2428 H   0  0  0  0  0  0  0  0  0  0  0  0
    4.0080    0.4179   -0.6021 H   0  0  0  0  0  0  0  0  0  0  0  0
    2.3810   -0.2205   -0.2797 H   0  0  0  0  0  0  0  0  0  0  0  0
    3.5332    0.6202   -2.9725 H   0  0  0  0  0  0  0  0  0  0  0  0
    3.1248   -1.0150   -2.4514 H   0  0  0  0  0  0  0  0  0  0  0  0
    1.8500    0.1742   -2.7303 H   0  0  0  0  0  0  0  0  0  0  0  0
  1  2  1  0  0  0  0
  2  3  1  0  0  0  0
  3  4  1  0  0  0  0
  4  5  1  0  0  0  0
  5  6  1  0  0  0  0
  6  7  1  0  0  0  0
  6  8  1  0  0  0  0
  6  9  1  0  0  0  0
  4 10  1  0  0  0  0
 10 11  1  0  0  0  0
  1 12  1  0  0  0  0
  1 13  1  0  0  0  0
  1 14  1  0  0  0  0
  2 15  1  0  0  0  0
  2 16  1  0  0  0  0
  4 17  1  0  0  0  0
  5 18  1  0  0  0  0
  5 19  1  0  0  0  0
  7 20  1  0  0  0  0
  7 21  1  0  0  0  0
  7 22  1  0  0  0  0
  8 23  1  0  0  0  0
  8 24  1  0  0  0  0
  8 25  1  0  0  0  0
  9 26  1  0  0  0  0
  9 27  1  0  0  0  0
  9 28  1  0  0  0  0
 10 29  1  0  0  0  0
 10 30  1  0  0  0  0
 11 31  1  0  0  0  0
 11 32  1  0  0  0  0
 11 33  1  0  0  0  0
M  CHG  1   1   1
M  END
