49

C          0.94258       -0.15851       -0.32033
C          0.57015        1.23745        0.16330
C          1.24443        2.33978       -0.65376
C          2.68423        2.60642       -0.26065
O          3.48472        1.79874        0.16800
O          2.96085        3.93848       -0.43180
C          1.80862        4.58548       -0.96466
C          0.64324        3.74239       -0.47715
C          0.26103        4.06488        0.98322
C         -0.27844        5.44097        1.16087
C         -1.44708        5.98351        0.67291
N         -1.57739        7.24725        1.20817
C         -0.48133        7.55103        1.91955
N          0.30216        6.45843        1.93359
C          1.54597        6.41110        2.70747
C         -2.74977        8.12673        1.09249
C         -3.24139        8.52026        2.47413
O         -2.74142        9.44070        3.11353
C         -4.25853        7.65735        3.10661
C         -5.51009        8.18760        3.43067
C         -6.46951        7.36957        4.03830
C         -6.15909        6.03254        4.33213
C         -4.89382        5.51104        4.02552
C         -3.94162        6.32838        3.41389
N         -7.16084        5.16782        4.97191
O         -8.26553        5.66227        5.22783
O         -6.83596        3.99461        5.20083
H          0.65015       -0.30103       -1.36554
H          0.42447       -0.91345        0.27996
H          2.01708       -0.34256       -0.23537
H         -0.51919        1.33781        0.08709
H          0.83702        1.31890        1.22368
H          1.24096        2.07742       -1.71999
H          1.88440        4.58948       -2.05838
H          1.77929        5.62256       -0.62042
H         -0.23290        3.88007       -1.12186
H         -0.53441        3.38643        1.31523
H          1.10269        3.89888        1.66002
H         -2.23466        5.59434        0.04835
H         -0.28344        8.48725        2.43409
H          2.12508        7.31494        2.49896
H          1.28986        6.37746        3.77038
H          2.14952        5.54168        2.44719
H         -2.46299        9.02722        0.53969
H         -3.54474        7.62414        0.53236
H         -5.74614        9.23048        3.22439
H         -7.44521        7.78699        4.28595
H         -4.63557        4.48171        4.27207
H         -2.95248        5.92347        3.22144
