23

C          0.95996       -0.16496        0.10118
C          0.44346        1.27710        0.08588
N          0.96571        2.08105       -1.14960
C          0.50760        1.50192       -2.48586
C          0.48900        3.53839       -1.06792
C          2.50075        2.11779       -1.14194
C         -1.08570        1.27957        0.17644
H          0.61322       -0.73917       -0.76278
H          0.59610       -0.68235        0.99667
H          2.05122       -0.21411        0.13952
H          0.84408        1.79865        0.96443
H         -0.58347        1.52097       -2.52874
H          0.91816        2.12506       -3.28691
H          0.88712        0.48251       -2.58285
H          0.75715        3.93479       -0.08454
H          0.98390        4.11140       -1.85839
H         -0.59174        3.56894       -1.22509
H          2.83283        2.46905       -0.16091
H          2.88206        1.11593       -1.35290
H          2.83651        2.80318       -1.92655
H         -1.40762        0.73257        1.07039
H         -1.49386        2.28922        0.26994
H         -1.55314        0.79059       -0.68308
