59

C          0.27532        1.30218        1.64545
C          0.08040        0.41389        0.42587
C          0.72642       -0.96806        0.56671
C          0.09397       -1.88079        1.62666
C         -1.24463       -2.48841        1.20497
C         -1.22758       -3.68633        0.23405
N         -0.74480       -5.06289        0.78150
C         -1.09621       -5.23427        2.32258
C         -2.59256       -5.17423        2.67746
C         -3.33261       -6.51225        2.82486
C         -2.72013       -7.46167        3.84234
C         -1.52876       -6.22165        0.07499
C         -1.26501       -6.46411       -1.40683
C         -0.28515       -7.59752       -1.73759
C         -0.71791       -8.96453       -1.22292
C          0.79850       -5.31478        0.69544
C          1.68431       -4.46276       -0.22320
C          1.59903       -4.61723       -1.73755
C          2.61706       -3.72337       -2.43810
H         -0.26700        0.91945        2.51441
H         -0.10055        2.30953        1.43921
H          1.33518        1.38483        1.90667
H         -0.98792        0.32266        0.20504
H          0.53514        0.91553       -0.43727
H          0.69297       -1.45645       -0.41323
H          1.78740       -0.83404        0.81217
H          0.79492       -2.67382        1.90108
H         -0.05937       -1.30919        2.54870
H         -1.80530       -2.73273        2.11084
H         -1.84543       -1.70325        0.72935
H         -2.26404       -3.84206       -0.08762
H         -0.66469       -3.45708       -0.66943
H         -0.64353       -6.18141        2.63517
H         -0.55847       -4.43677        2.84491
H         -2.66884       -4.66757        3.64932
H         -3.15131       -4.54816        1.97477
H         -4.35994       -6.29066        3.14070
H         -3.42087       -7.02803        1.86518
H         -2.56039       -6.96399        4.80341
H         -3.39005       -8.31205        4.00779
H         -1.76556       -7.86438        3.49257
H         -1.35038       -7.12385        0.66763
H         -2.58593       -5.95751        0.16885
H         -2.22475       -6.75313       -1.85867
H         -0.98920       -5.54492       -1.92112
H         -0.19138       -7.65662       -2.82851
H          0.71380       -7.38783       -1.35262
H         -1.74336       -9.19731       -1.52477
H         -0.05981       -9.74075       -1.62738
H         -0.65358       -9.02360       -0.13265
H          1.18354       -5.13588        1.70732
H          0.94532       -6.38404        0.51908
H          1.58481       -3.41064        0.02919
H          2.71925       -4.70857        0.05563
H          1.79739       -5.65192       -2.02681
H          0.61657       -4.33568       -2.11277
H          3.63845       -3.98148       -2.14214
H          2.53753       -3.83908       -3.52367
H          2.44372       -2.66920       -2.19711
