 xtb: 6.7.1 (edcfbbe)
          12202402153D

 23 22  0     0  0            999 V2000
    0.9613   -0.1433    0.0704 C   0  0  0  0  0  0  0  0  0  0  0  0
    0.4546    1.2949    0.0487 C   0  0  0  0  0  0  0  0  0  0  0  0
    0.9695    2.0862   -1.1461 N   0  0  0  0  0  0  0  0  0  0  0  0
    0.5213    1.5185   -2.4303 C   0  0  0  0  0  0  0  0  0  0  0  0
    0.4995    3.4839   -1.0600 C   0  0  0  0  0  0  0  0  0  0  0  0
    2.4463    2.1091   -1.1317 C   0  0  0  0  0  0  0  0  0  0  0  0
   -1.0672    1.2891    0.1451 C   0  0  0  0  0  0  0  0  0  0  0  0
    0.5673   -0.7272   -0.7565 H   0  0  0  0  0  0  0  0  0  0  0  0
    0.6066   -0.6078    0.9868 H   0  0  0  0  0  0  0  0  0  0  0  0
    2.0439   -0.2155    0.0817 H   0  0  0  0  0  0  0  0  0  0  0  0
    0.8557    1.8172    0.9236 H   0  0  0  0  0  0  0  0  0  0  0  0
   -0.5640    1.5215   -2.4911 H   0  0  0  0  0  0  0  0  0  0  0  0
    0.9136    2.1167   -3.2508 H   0  0  0  0  0  0  0  0  0  0  0  0
    0.8830    0.4997   -2.5443 H   0  0  0  0  0  0  0  0  0  0  0  0
    0.7513    3.9089   -0.0901 H   0  0  0  0  0  0  0  0  0  0  0  0
    0.9759    4.0819   -1.8349 H   0  0  0  0  0  0  0  0  0  0  0  0
   -0.5758    3.5406   -1.2054 H   0  0  0  0  0  0  0  0  0  0  0  0
    2.8102    2.4551   -0.1659 H   0  0  0  0  0  0  0  0  0  0  0  0
    2.8511    1.1207   -1.3315 H   0  0  0  0  0  0  0  0  0  0  0  0
    2.8126    2.7849   -1.9025 H   0  0  0  0  0  0  0  0  0  0  0  0
   -1.3414    0.7678    1.0585 H   0  0  0  0  0  0  0  0  0  0  0  0
   -1.4956    2.2838    0.2119 H   0  0  0  0  0  0  0  0  0  0  0  0
   -1.5262    0.7511   -0.6794 H   0  0  0  0  0  0  0  0  0  0  0  0
  1  2  1  0  0  0  0
  2  3  1  0  0  0  0
  3  4  1  0  0  0  0
  3  5  1  0  0  0  0
  3  6  1  0  0  0  0
  2  7  1  0  0  0  0
  1  8  1  0  0  0  0
  1  9  1  0  0  0  0
  1 10  1  0  0  0  0
  2 11  1  0  0  0  0
  4 12  1  0  0  0  0
  4 13  1  0  0  0  0
  4 14  1  0  0  0  0
  5 15  1  0  0  0  0
  5 16  1  0  0  0  0
  5 17  1  0  0  0  0
  6 18  1  0  0  0  0
  6 19  1  0  0  0  0
  6 20  1  0  0  0  0
  7 21  1  0  0  0  0
  7 22  1  0  0  0  0
  7 23  1  0  0  0  0
M  CHG  1   1   1
M  END
