 xtb: 6.7.1 (edcfbbe)
          12202402153D

 34 35  0     0  0            999 V2000
    1.4590    0.6676    0.0818 C   0  0  0  0  0  0  0  0  0  0  0  0
    0.4465   -0.4047    0.4675 C   0  0  0  0  0  0  0  0  0  0  0  0
    0.7336   -1.0330    1.8322 C   0  0  0  0  0  0  0  0  0  0  0  0
    0.3659   -0.1340    3.0187 C   0  0  0  0  0  0  0  0  0  0  0  0
   -1.0660    0.0903    3.1155 N   0  0  0  0  0  0  0  0  0  0  0  0
   -1.6656    1.2032    2.7575 C   0  0  0  0  0  0  0  0  0  0  0  0
   -1.0066    2.4703    2.3056 C   0  0  0  0  0  0  0  0  0  0  0  0
   -2.1315    3.5090    2.4231 C   0  0  0  0  0  0  0  0  0  0  0  0
   -3.4109    2.6725    2.3514 C   0  0  0  0  0  0  0  0  0  0  0  0
   -2.9754    1.3537    2.7741 N   0  0  0  0  0  0  0  0  0  0  0  0
   -3.9172    0.2958    3.0559 C   0  0  0  0  0  0  0  0  0  0  0  0
   -3.2173   -1.0458    2.8742 C   0  0  0  0  0  0  0  0  0  0  0  0
   -1.8824   -1.0118    3.6094 C   0  0  0  0  0  0  0  0  0  0  0  0
    1.5060    1.4697    0.8149 H   0  0  0  0  0  0  0  0  0  0  0  0
    1.2005    1.1005   -0.8810 H   0  0  0  0  0  0  0  0  0  0  0  0
    2.4508    0.2318   -0.0022 H   0  0  0  0  0  0  0  0  0  0  0  0
   -0.5667    0.0067    0.4550 H   0  0  0  0  0  0  0  0  0  0  0  0
    0.4800   -1.1932   -0.2854 H   0  0  0  0  0  0  0  0  0  0  0  0
    0.1961   -1.9792    1.9130 H   0  0  0  0  0  0  0  0  0  0  0  0
    1.7978   -1.2578    1.9051 H   0  0  0  0  0  0  0  0  0  0  0  0
    0.6899   -0.6092    3.9484 H   0  0  0  0  0  0  0  0  0  0  0  0
    0.8772    0.8222    2.9277 H   0  0  0  0  0  0  0  0  0  0  0  0
   -0.1434    2.7341    2.9137 H   0  0  0  0  0  0  0  0  0  0  0  0
   -0.6736    2.3611    1.2713 H   0  0  0  0  0  0  0  0  0  0  0  0
   -2.0693    4.0189    3.3837 H   0  0  0  0  0  0  0  0  0  0  0  0
   -2.0863    4.2580    1.6378 H   0  0  0  0  0  0  0  0  0  0  0  0
   -4.1959    3.0401    3.0137 H   0  0  0  0  0  0  0  0  0  0  0  0
   -3.8129    2.6186    1.3339 H   0  0  0  0  0  0  0  0  0  0  0  0
   -4.7635    0.3902    2.3711 H   0  0  0  0  0  0  0  0  0  0  0  0
   -4.2952    0.4055    4.0782 H   0  0  0  0  0  0  0  0  0  0  0  0
   -3.0415   -1.2313    1.8130 H   0  0  0  0  0  0  0  0  0  0  0  0
   -3.8388   -1.8496    3.2632 H   0  0  0  0  0  0  0  0  0  0  0  0
   -2.0431   -0.8803    4.6848 H   0  0  0  0  0  0  0  0  0  0  0  0
   -1.3388   -1.9437    3.4584 H   0  0  0  0  0  0  0  0  0  0  0  0
  1  2  1  0  0  0  0
  2  3  1  0  0  0  0
  3  4  1  0  0  0  0
  4  5  1  0  0  0  0
  5  6  4  0  0  0  0
  6  7  1  0  0  0  0
  7  8  1  0  0  0  0
  8  9  1  0  0  0  0
  6 10  4  0  0  0  0
  9 10  1  0  0  0  0
 10 11  1  0  0  0  0
 11 12  1  0  0  0  0
  5 13  1  0  0  0  0
 12 13  1  0  0  0  0
  1 14  1  0  0  0  0
  1 15  1  0  0  0  0
  1 16  1  0  0  0  0
  2 17  1  0  0  0  0
  2 18  1  0  0  0  0
  3 19  1  0  0  0  0
  3 20  1  0  0  0  0
  4 21  1  0  0  0  0
  4 22  1  0  0  0  0
  7 23  1  0  0  0  0
  7 24  1  0  0  0  0
  8 25  1  0  0  0  0
  8 26  1  0  0  0  0
  9 27  1  0  0  0  0
  9 28  1  0  0  0  0
 11 29  1  0  0  0  0
 11 30  1  0  0  0  0
 12 31  1  0  0  0  0
 12 32  1  0  0  0  0
 13 33  1  0  0  0  0
 13 34  1  0  0  0  0
M  CHG  1   1   1
M  END
