11

C          1.05585       -0.01776       -0.07816
C          0.54460        1.25060        0.56906
N          1.03476        2.42044       -0.19654
H          0.70283       -0.10497       -1.11106
H          0.70289       -0.89354        0.47519
H          2.15055       -0.04283       -0.08926
H         -0.54782        1.29653        0.56163
H          0.91311        1.35923        1.59276
H          0.70691        2.40046       -1.17148
H          0.70318        3.30071        0.21972
H          2.06267        2.45865       -0.21458
