 xtb: 6.7.1 (edcfbbe)
          12202402153D

 19 19  0     0  0            999 V2000
    1.1954   -0.0578   -0.1382 N   0  0  0  0  0  0  0  0  0  0  0  0
    2.3337   -0.0519   -0.1106 C   0  0  0  0  0  0  0  0  0  0  0  0
    3.7914   -0.0555   -0.1191 C   0  0  0  0  0  0  0  0  0  0  0  0
    4.2714   -0.3337   -1.4650 N   0  0  0  0  0  0  0  0  0  0  0  0
    4.5410    0.6774   -2.3060 C   0  0  0  0  0  0  0  0  0  0  0  0
    4.9361    0.4391   -3.5986 C   0  0  0  0  0  0  0  0  0  0  0  0
    5.0590   -0.8739   -4.0733 C   0  0  0  0  0  0  0  0  0  0  0  0
    4.7620   -1.8999   -3.1685 C   0  0  0  0  0  0  0  0  0  0  0  0
    4.3714   -1.6041   -1.8853 C   0  0  0  0  0  0  0  0  0  0  0  0
    5.4688   -1.1500   -5.4646 C   0  0  0  0  0  0  0  0  0  0  0  0
    4.1483    0.9221    0.2201 H   0  0  0  0  0  0  0  0  0  0  0  0
    4.1447   -0.8220    0.5787 H   0  0  0  0  0  0  0  0  0  0  0  0
    4.4352    1.6832   -1.9262 H   0  0  0  0  0  0  0  0  0  0  0  0
    5.1497    1.2739   -4.2478 H   0  0  0  0  0  0  0  0  0  0  0  0
    4.8357   -2.9327   -3.4713 H   0  0  0  0  0  0  0  0  0  0  0  0
    4.1319   -2.3830   -1.1759 H   0  0  0  0  0  0  0  0  0  0  0  0
    4.6598   -0.8747   -6.1438 H   0  0  0  0  0  0  0  0  0  0  0  0
    6.3283   -0.5421   -5.7427 H   0  0  0  0  0  0  0  0  0  0  0  0
    5.7003   -2.1999   -5.6168 H   0  0  0  0  0  0  0  0  0  0  0  0
  1  2  3  0  0  0  0
  2  3  1  0  0  0  0
  3  4  1  0  0  0  0
  4  5  4  0  0  0  0
  5  6  2  0  0  0  0
  6  7  4  0  0  0  0
  7  8  4  0  0  0  0
  4  9  4  0  0  0  0
  8  9  4  0  0  0  0
  7 10  1  0  0  0  0
  3 11  1  0  0  0  0
  3 12  1  0  0  0  0
  5 13  1  0  0  0  0
  6 14  1  0  0  0  0
  8 15  1  0  0  0  0
  9 16  1  0  0  0  0
 10 17  1  0  0  0  0
 10 18  1  0  0  0  0
 10 19  1  0  0  0  0
M  CHG  1   1   1
M  END
