35

O          2.11994       -0.58360       -0.06683
C          1.44267        0.54042        0.44174
N          1.47338        0.42299        1.87804
C          1.01138       -0.66340        2.51352
N          1.12874       -0.46508        3.83853
C          1.69568        0.78350        4.06851
C          1.90577        1.35911        2.80506
C          2.45138        2.63183        2.65268
C          2.78544        3.30575        3.83522
C          2.58071        2.72664        5.10176
C          2.02860        1.44676        5.24768
C          0.67448       -1.44487        4.83998
C         -0.80619       -1.75241        4.65328
O         -1.26036       -2.04278        3.54536
C         -1.71102       -1.73940        5.83115
C         -1.55221       -0.82682        6.88094
C         -2.44052       -0.84757        7.96118
C         -3.48660       -1.76982        7.98627
C         -3.66061       -2.66896        6.93659
C         -2.77651       -2.64984        5.85514
Br        -4.68390       -1.78793        9.44723
H          3.07045       -0.38873       -0.00227
H          1.92217        1.45744        0.09144
H          0.40238        0.52290        0.10444
H          0.61436       -1.55026        2.02909
H          2.61112        3.08083        1.68039
H          3.21726        4.30598        3.77503
H          2.86115        3.29183        5.99192
H          1.87716        1.00516        6.22412
H          1.23667       -2.37226        4.68268
H          0.90557       -1.09004        5.84460
H         -0.77553       -0.06843        6.87624
H         -2.32050       -0.13423        8.77440
H         -4.48292       -3.38151        6.94733
H         -2.92944       -3.34895        5.03381
