 xtb: 6.7.1 (edcfbbe)
          12202402153D

 11 10  0     0  0            999 V2000
    1.0597   -0.0154   -0.0837 C   0  0  0  0  0  0  0  0  0  0  0  0
    0.5473    1.2536    0.5651 C   0  0  0  0  0  0  0  0  0  0  0  0
    1.0363    2.4471   -0.2003 N   0  0  0  0  0  0  0  0  0  0  0  0
    0.6993   -0.1127   -1.1047 H   0  0  0  0  0  0  0  0  0  0  0  0
    0.7025   -0.8757    0.4746 H   0  0  0  0  0  0  0  0  0  0  0  0
    2.1462   -0.0506   -0.0835 H   0  0  0  0  0  0  0  0  0  0  0  0
   -0.5432    1.2734    0.5697 H   0  0  0  0  0  0  0  0  0  0  0  0
    0.9053    1.3356    1.5920 H   0  0  0  0  0  0  0  0  0  0  0  0
    0.7059    2.3937   -1.1736 H   0  0  0  0  0  0  0  0  0  0  0  0
    0.7049    3.3264    0.2157 H   0  0  0  0  0  0  0  0  0  0  0  0
    2.0653    2.4520   -0.2141 H   0  0  0  0  0  0  0  0  0  0  0  0
  1  2  1  0  0  0  0
  2  3  1  0  0  0  0
  1  4  1  0  0  0  0
  1  5  1  0  0  0  0
  1  6  1  0  0  0  0
  2  7  1  0  0  0  0
  2  8  1  0  0  0  0
  3  9  1  0  0  0  0
  3 10  1  0  0  0  0
  3 11  1  0  0  0  0
M  CHG  1   1   1
M  END
