 xtb: 6.7.1 (edcfbbe)
          12202402153D

 35 37  0     0  0            999 V2000
    2.5780   -0.7471    0.1390 O   0  0  0  0  0  0  0  0  0  0  0  0
    1.5571    0.1070    0.4997 C   0  0  0  0  0  0  0  0  0  0  0  0
    1.4937    0.2663    1.9534 N   0  0  0  0  0  0  0  0  0  0  0  0
    1.0330   -0.6612    2.7904 C   0  0  0  0  0  0  0  0  0  0  0  0
    1.1866   -0.2872    4.0561 N   0  0  0  0  0  0  0  0  0  0  0  0
    1.7488    0.9772    4.0592 C   0  0  0  0  0  0  0  0  0  0  0  0
    1.9640    1.3235    2.7109 C   0  0  0  0  0  0  0  0  0  0  0  0
    2.5427    2.5376    2.3635 C   0  0  0  0  0  0  0  0  0  0  0  0
    2.8922    3.3842    3.3960 C   0  0  0  0  0  0  0  0  0  0  0  0
    2.6760    3.0415    4.7328 C   0  0  0  0  0  0  0  0  0  0  0  0
    2.1042    1.8372    5.0899 C   0  0  0  0  0  0  0  0  0  0  0  0
    0.5672   -0.9656    5.1553 C   0  0  0  0  0  0  0  0  0  0  0  0
   -0.9590   -1.0453    4.8636 C   0  0  0  0  0  0  0  0  0  0  0  0
   -1.3436   -0.7396    3.7575 O   0  0  0  0  0  0  0  0  0  0  0  0
   -1.8223   -1.5099    5.9426 C   0  0  0  0  0  0  0  0  0  0  0  0
   -1.3443   -1.9755    7.1741 C   0  0  0  0  0  0  0  0  0  0  0  0
   -2.2236   -2.4194    8.1377 C   0  0  0  0  0  0  0  0  0  0  0  0
   -3.5932   -2.4004    7.8881 C   0  0  0  0  0  0  0  0  0  0  0  0
   -4.0876   -1.9411    6.6719 C   0  0  0  0  0  0  0  0  0  0  0  0
   -3.2057   -1.5036    5.7095 C   0  0  0  0  0  0  0  0  0  0  0  0
   -4.7898   -3.0094    9.2196 Br  0  0  0  0  0  0  0  0  0  0  0  0
    3.4368   -0.3063    0.1232 H   0  0  0  0  0  0  0  0  0  0  0  0
    1.6428    1.1064    0.0589 H   0  0  0  0  0  0  0  0  0  0  0  0
    0.6219   -0.3593    0.1728 H   0  0  0  0  0  0  0  0  0  0  0  0
    0.6355   -1.6047    2.4678 H   0  0  0  0  0  0  0  0  0  0  0  0
    2.7142    2.8149    1.3362 H   0  0  0  0  0  0  0  0  0  0  0  0
    3.3444    4.3358    3.1669 H   0  0  0  0  0  0  0  0  0  0  0  0
    2.9645    3.7374    5.5041 H   0  0  0  0  0  0  0  0  0  0  0  0
    1.9450    1.5851    6.1257 H   0  0  0  0  0  0  0  0  0  0  0  0
    0.9529   -1.9852    5.2459 H   0  0  0  0  0  0  0  0  0  0  0  0
    0.7604   -0.4175    6.0763 H   0  0  0  0  0  0  0  0  0  0  0  0
   -0.2875   -2.0096    7.3866 H   0  0  0  0  0  0  0  0  0  0  0  0
   -1.8575   -2.7835    9.0848 H   0  0  0  0  0  0  0  0  0  0  0  0
   -5.1505   -1.9326    6.4886 H   0  0  0  0  0  0  0  0  0  0  0  0
   -3.5670   -1.1455    4.7575 H   0  0  0  0  0  0  0  0  0  0  0  0
  1  2  1  0  0  0  0
  2  3  1  0  0  0  0
  3  4  4  0  0  0  0
  4  5  4  0  0  0  0
  5  6  1  0  0  0  0
  3  7  1  0  0  0  0
  6  7  4  0  0  0  0
  7  8  4  0  0  0  0
  8  9  4  0  0  0  0
  9 10  4  0  0  0  0
  6 11  4  0  0  0  0
 10 11  4  0  0  0  0
  5 12  1  0  0  0  0
 12 13  1  0  0  0  0
 13 14  2  0  0  0  0
 13 15  1  0  0  0  0
 15 16  4  0  0  0  0
 16 17  4  0  0  0  0
 17 18  4  0  0  0  0
 18 19  4  0  0  0  0
 15 20  4  0  0  0  0
 19 20  4  0  0  0  0
 18 21  1  0  0  0  0
  1 22  1  0  0  0  0
  2 23  1  0  0  0  0
  2 24  1  0  0  0  0
  4 25  1  0  0  0  0
  8 26  1  0  0  0  0
  9 27  1  0  0  0  0
 10 28  1  0  0  0  0
 11 29  1  0  0  0  0
 12 30  1  0  0  0  0
 12 31  1  0  0  0  0
 16 32  1  0  0  0  0
 17 33  1  0  0  0  0
 19 34  1  0  0  0  0
 20 35  1  0  0  0  0
M  CHG  1   1   1
M  END
