 xtb: 6.7.1 (edcfbbe)
          12202402163D

228231  0     0  0            999 V2000
    1.4687   -1.5599   -0.2869 C   0  0  0  0  0  0  0  0  0  0  0  0
    1.6721   -1.9587    1.1699 C   0  0  0  0  0  0  0  0  0  0  0  0
    1.7182   -0.7637    2.1232 C   0  0  0  0  0  0  0  0  0  0  0  0
    0.4431    0.0808    2.1646 C   0  0  0  0  0  0  0  0  0  0  0  0
   -0.8188   -0.6749    2.5854 C   0  0  0  0  0  0  0  0  0  0  0  0
   -0.7550   -1.3124    3.9745 C   0  0  0  0  0  0  0  0  0  0  0  0
   -0.5253   -0.3289    5.1233 C   0  0  0  0  0  0  0  0  0  0  0  0
   -1.5896    0.7605    5.2677 C   0  0  0  0  0  0  0  0  0  0  0  0
   -3.0172    0.2451    5.4592 C   0  0  0  0  0  0  0  0  0  0  0  0
   -3.2224   -0.6427    6.6880 C   0  0  0  0  0  0  0  0  0  0  0  0
   -2.8948    0.0247    8.0249 C   0  0  0  0  0  0  0  0  0  0  0  0
   -3.6873    1.3001    8.3183 C   0  0  0  0  0  0  0  0  0  0  0  0
   -5.2087    1.1307    8.3224 C   0  0  0  0  0  0  0  0  0  0  0  0
   -5.7440    0.1836    9.3991 C   0  0  0  0  0  0  0  0  0  0  0  0
   -5.5995    0.7247   10.8229 C   0  0  0  0  0  0  0  0  0  0  0  0
   -6.5953    1.8485   11.1417 C   0  0  0  0  0  0  0  0  0  0  0  0
   -7.8990    1.3418   11.4893 N   0  0  0  0  0  0  0  0  0  0  0  0
   -8.3178    0.8828   12.7076 C   0  0  0  0  0  0  0  0  0  0  0  0
   -7.6131    0.7739   13.9064 C   0  0  0  0  0  0  0  0  0  0  0  0
   -6.2796    1.0100   14.2018 C   0  0  0  0  0  0  0  0  0  0  0  0
   -5.8223    0.9412   15.5074 C   0  0  0  0  0  0  0  0  0  0  0  0
   -4.5736    1.2297   16.0604 C   0  0  0  0  0  0  0  0  0  0  0  0
   -3.3773    1.4813   15.4493 N   0  0  0  0  0  0  0  0  0  0  0  0
   -3.1128    1.5414   14.0337 C   0  0  0  0  0  0  0  0  0  0  0  0
   -3.5179    2.8944   13.4322 C   0  0  0  0  0  0  0  0  0  0  0  0
   -2.5290    4.0236   13.7276 C   0  0  0  0  0  0  0  0  0  0  0  0
   -1.2086    3.9273   12.9617 C   0  0  0  0  0  0  0  0  0  0  0  0
   -1.3846    3.9480   11.4423 C   0  0  0  0  0  0  0  0  0  0  0  0
   -0.1107    4.3628   10.7040 C   0  0  0  0  0  0  0  0  0  0  0  0
    1.1084    3.4814   10.9797 C   0  0  0  0  0  0  0  0  0  0  0  0
    0.9502    2.0105   10.5911 C   0  0  0  0  0  0  0  0  0  0  0  0
    0.6606    1.7589    9.1099 C   0  0  0  0  0  0  0  0  0  0  0  0
    1.6849    2.3488    8.1386 C   0  0  0  0  0  0  0  0  0  0  0  0
    3.1329    1.9163    8.3764 C   0  0  0  0  0  0  0  0  0  0  0  0
    3.3823    0.4085    8.3103 C   0  0  0  0  0  0  0  0  0  0  0  0
    2.9943   -0.2531    6.9869 C   0  0  0  0  0  0  0  0  0  0  0  0
    3.6686    0.3336    5.7453 C   0  0  0  0  0  0  0  0  0  0  0  0
    5.1969    0.2862    5.7568 C   0  0  0  0  0  0  0  0  0  0  0  0
    5.7537   -1.1318    5.8017 C   0  0  0  0  0  0  0  0  0  0  0  0
   -2.4205    1.7156   16.4174 C   0  0  0  0  0  0  0  0  0  0  0  0
   -3.0578    1.6015   17.6625 C   0  0  0  0  0  0  0  0  0  0  0  0
   -4.3764    1.2906   17.4148 N   0  0  0  0  0  0  0  0  0  0  0  0
   -5.3496    1.1411   18.4700 C   0  0  0  0  0  0  0  0  0  0  0  0
   -5.9590    2.4821   18.9036 C   0  0  0  0  0  0  0  0  0  0  0  0
   -6.8305    3.1418   17.8330 C   0  0  0  0  0  0  0  0  0  0  0  0
   -8.1607    2.4117   17.6125 C   0  0  0  0  0  0  0  0  0  0  0  0
   -9.3153    2.9801   18.4406 C   0  0  0  0  0  0  0  0  0  0  0  0
   -9.9822    4.2105   17.8233 C   0  0  0  0  0  0  0  0  0  0  0  0
  -10.5797    3.9890   16.4294 C   0  0  0  0  0  0  0  0  0  0  0  0
  -11.4930    2.7685   16.2962 C   0  0  0  0  0  0  0  0  0  0  0  0
  -12.7321    2.7871   17.1924 C   0  0  0  0  0  0  0  0  0  0  0  0
  -13.7094    3.9300   16.9127 C   0  0  0  0  0  0  0  0  0  0  0  0
  -14.2492    3.9869   15.4819 C   0  0  0  0  0  0  0  0  0  0  0  0
  -14.9587    2.7175   15.0057 C   0  0  0  0  0  0  0  0  0  0  0  0
  -16.1690    2.3016   15.8441 C   0  0  0  0  0  0  0  0  0  0  0  0
  -17.2813    3.3477   15.9384 C   0  0  0  0  0  0  0  0  0  0  0  0
  -17.8818    3.7762   14.5986 C   0  0  0  0  0  0  0  0  0  0  0  0
  -18.5508    2.6326   13.8451 C   0  0  0  0  0  0  0  0  0  0  0  0
   -2.3628    1.7856   18.8474 C   0  0  0  0  0  0  0  0  0  0  0  0
   -1.0138    2.0758   18.7536 C   0  0  0  0  0  0  0  0  0  0  0  0
   -0.3782    2.1787   17.5202 C   0  0  0  0  0  0  0  0  0  0  0  0
   -1.0671    2.0015   16.3337 C   0  0  0  0  0  0  0  0  0  0  0  0
   -9.6461    0.5666   12.6042 N   0  0  0  0  0  0  0  0  0  0  0  0
  -10.0657    0.8094   11.3145 C   0  0  0  0  0  0  0  0  0  0  0  0
   -8.9588    1.2993   10.6053 C   0  0  0  0  0  0  0  0  0  0  0  0
   -9.0652    1.6491    9.2685 C   0  0  0  0  0  0  0  0  0  0  0  0
  -10.3013    1.4943    8.6667 C   0  0  0  0  0  0  0  0  0  0  0  0
  -11.3997    1.0129    9.3722 C   0  0  0  0  0  0  0  0  0  0  0  0
  -11.3032    0.6636   10.7071 C   0  0  0  0  0  0  0  0  0  0  0  0
  -10.5401    0.0385   13.6070 C   0  0  0  0  0  0  0  0  0  0  0  0
  -10.7818   -1.4650   13.4318 C   0  0  0  0  0  0  0  0  0  0  0  0
   -9.5862   -2.3440   13.8016 C   0  0  0  0  0  0  0  0  0  0  0  0
   -9.2507   -2.3883   15.2943 C   0  0  0  0  0  0  0  0  0  0  0  0
  -10.4146   -2.8519   16.1694 C   0  0  0  0  0  0  0  0  0  0  0  0
   -9.9785   -3.2496   17.5812 C   0  0  0  0  0  0  0  0  0  0  0  0
   -9.2478   -2.1556   18.3625 C   0  0  0  0  0  0  0  0  0  0  0  0
  -10.0153   -0.8413   18.5159 C   0  0  0  0  0  0  0  0  0  0  0  0
  -11.3574   -0.9498   19.2405 C   0  0  0  0  0  0  0  0  0  0  0  0
  -11.2697   -1.4581   20.6807 C   0  0  0  0  0  0  0  0  0  0  0  0
  -10.3655   -0.6395   21.6051 C   0  0  0  0  0  0  0  0  0  0  0  0
  -10.7281    0.8422   21.7234 C   0  0  0  0  0  0  0  0  0  0  0  0
  -12.1367    1.1235   22.2490 C   0  0  0  0  0  0  0  0  0  0  0  0
  -12.4352    0.5527   23.6367 C   0  0  0  0  0  0  0  0  0  0  0  0
  -11.5029    1.0359   24.7488 C   0  0  0  0  0  0  0  0  0  0  0  0
  -11.5594    2.5428   24.9704 C   0  0  0  0  0  0  0  0  0  0  0  0
    0.4868   -1.1194   -0.4399 H   0  0  0  0  0  0  0  0  0  0  0  0
    1.5505   -2.4326   -0.9310 H   0  0  0  0  0  0  0  0  0  0  0  0
    2.2225   -0.8374   -0.5926 H   0  0  0  0  0  0  0  0  0  0  0  0
    0.8797   -2.6452    1.4734 H   0  0  0  0  0  0  0  0  0  0  0  0
    2.6188   -2.4979    1.2581 H   0  0  0  0  0  0  0  0  0  0  0  0
    1.9403   -1.1300    3.1280 H   0  0  0  0  0  0  0  0  0  0  0  0
    2.5447   -0.1129    1.8255 H   0  0  0  0  0  0  0  0  0  0  0  0
    0.6093    0.9154    2.8494 H   0  0  0  0  0  0  0  0  0  0  0  0
    0.2689    0.5114    1.1767 H   0  0  0  0  0  0  0  0  0  0  0  0
   -1.6619    0.0184    2.5452 H   0  0  0  0  0  0  0  0  0  0  0  0
   -1.0227   -1.4634    1.8583 H   0  0  0  0  0  0  0  0  0  0  0  0
   -1.6863   -1.8569    4.1453 H   0  0  0  0  0  0  0  0  0  0  0  0
    0.0504   -2.0493    3.9936 H   0  0  0  0  0  0  0  0  0  0  0  0
   -0.4651   -0.8993    6.0535 H   0  0  0  0  0  0  0  0  0  0  0  0
    0.4412    0.1591    4.9835 H   0  0  0  0  0  0  0  0  0  0  0  0
   -1.3160    1.3953    6.1142 H   0  0  0  0  0  0  0  0  0  0  0  0
   -1.5744    1.3940    4.3788 H   0  0  0  0  0  0  0  0  0  0  0  0
   -3.6878    1.1056    5.5168 H   0  0  0  0  0  0  0  0  0  0  0  0
   -3.3112   -0.3253    4.5764 H   0  0  0  0  0  0  0  0  0  0  0  0
   -4.2601   -0.9842    6.6973 H   0  0  0  0  0  0  0  0  0  0  0  0
   -2.5984   -1.5331    6.5934 H   0  0  0  0  0  0  0  0  0  0  0  0
   -3.0634   -0.7021    8.8235 H   0  0  0  0  0  0  0  0  0  0  0  0
   -1.8333    0.2760    8.0461 H   0  0  0  0  0  0  0  0  0  0  0  0
   -3.3588    1.6950    9.2836 H   0  0  0  0  0  0  0  0  0  0  0  0
   -3.4350    2.0533    7.5703 H   0  0  0  0  0  0  0  0  0  0  0  0
   -5.6566    2.1207    8.4430 H   0  0  0  0  0  0  0  0  0  0  0  0
   -5.5243    0.7558    7.3485 H   0  0  0  0  0  0  0  0  0  0  0  0
   -6.7977   -0.0270    9.2030 H   0  0  0  0  0  0  0  0  0  0  0  0
   -5.2106   -0.7646    9.3305 H   0  0  0  0  0  0  0  0  0  0  0  0
   -5.7540   -0.0926   11.5311 H   0  0  0  0  0  0  0  0  0  0  0  0
   -4.5847    1.0992   10.9604 H   0  0  0  0  0  0  0  0  0  0  0  0
   -6.2391    2.4784   11.9601 H   0  0  0  0  0  0  0  0  0  0  0  0
   -6.7183    2.4914   10.2691 H   0  0  0  0  0  0  0  0  0  0  0  0
   -8.2161    0.4683   14.7476 H   0  0  0  0  0  0  0  0  0  0  0  0
   -5.5996    1.2638   13.4137 H   0  0  0  0  0  0  0  0  0  0  0  0
   -6.5761    0.6900   16.2361 H   0  0  0  0  0  0  0  0  0  0  0  0
   -2.0448    1.3754   13.8895 H   0  0  0  0  0  0  0  0  0  0  0  0
   -3.6423    0.7189   13.5460 H   0  0  0  0  0  0  0  0  0  0  0  0
   -3.6187    2.7853   12.3521 H   0  0  0  0  0  0  0  0  0  0  0  0
   -4.4927    3.1774   13.8362 H   0  0  0  0  0  0  0  0  0  0  0  0
   -3.0090    4.9681   13.4623 H   0  0  0  0  0  0  0  0  0  0  0  0
   -2.3237    4.0542   14.8003 H   0  0  0  0  0  0  0  0  0  0  0  0
   -0.5944    4.7807   13.2558 H   0  0  0  0  0  0  0  0  0  0  0  0
   -0.6675    3.0248   13.2494 H   0  0  0  0  0  0  0  0  0  0  0  0
   -1.7002    2.9648   11.0878 H   0  0  0  0  0  0  0  0  0  0  0  0
   -2.1713    4.6621   11.1847 H   0  0  0  0  0  0  0  0  0  0  0  0
   -0.3172    4.3695    9.6325 H   0  0  0  0  0  0  0  0  0  0  0  0
    0.1396    5.3868   10.9921 H   0  0  0  0  0  0  0  0  0  0  0  0
    1.9570    3.9020   10.4387 H   0  0  0  0  0  0  0  0  0  0  0  0
    1.3544    3.5320   12.0429 H   0  0  0  0  0  0  0  0  0  0  0  0
    1.8684    1.4885   10.8670 H   0  0  0  0  0  0  0  0  0  0  0  0
    0.1426    1.5627   11.1768 H   0  0  0  0  0  0  0  0  0  0  0  0
    0.6041    0.6787    8.9568 H   0  0  0  0  0  0  0  0  0  0  0  0
   -0.3206    2.1713    8.8603 H   0  0  0  0  0  0  0  0  0  0  0  0
    1.3883    2.0690    7.1256 H   0  0  0  0  0  0  0  0  0  0  0  0
    1.6433    3.4391    8.1917 H   0  0  0  0  0  0  0  0  0  0  0  0
    3.7589    2.4140    7.6334 H   0  0  0  0  0  0  0  0  0  0  0  0
    3.4601    2.2728    9.3556 H   0  0  0  0  0  0  0  0  0  0  0  0
    4.4427    0.2328    8.5021 H   0  0  0  0  0  0  0  0  0  0  0  0
    2.8289   -0.0859    9.1124 H   0  0  0  0  0  0  0  0  0  0  0  0
    3.2338   -1.3163    7.0542 H   0  0  0  0  0  0  0  0  0  0  0  0
    1.9132   -0.1793    6.8548 H   0  0  0  0  0  0  0  0  0  0  0  0
    3.3128   -0.2212    4.8731 H   0  0  0  0  0  0  0  0  0  0  0  0
    3.3522    1.3710    5.6176 H   0  0  0  0  0  0  0  0  0  0  0  0
    5.5571    0.7767    4.8490 H   0  0  0  0  0  0  0  0  0  0  0  0
    5.5805    0.8545    6.6058 H   0  0  0  0  0  0  0  0  0  0  0  0
    5.3481   -1.7255    4.9852 H   0  0  0  0  0  0  0  0  0  0  0  0
    6.8369   -1.1143    5.7062 H   0  0  0  0  0  0  0  0  0  0  0  0
    5.5062   -1.6214    6.7401 H   0  0  0  0  0  0  0  0  0  0  0  0
   -6.1260    0.4444   18.1528 H   0  0  0  0  0  0  0  0  0  0  0  0
   -4.8344    0.6890   19.3211 H   0  0  0  0  0  0  0  0  0  0  0  0
   -6.5565    2.3065   19.7994 H   0  0  0  0  0  0  0  0  0  0  0  0
   -5.1443    3.1581   19.1715 H   0  0  0  0  0  0  0  0  0  0  0  0
   -7.0345    4.1690   18.1374 H   0  0  0  0  0  0  0  0  0  0  0  0
   -6.2689    3.1918   16.8980 H   0  0  0  0  0  0  0  0  0  0  0  0
   -8.4251    2.4538   16.5563 H   0  0  0  0  0  0  0  0  0  0  0  0
   -8.0440    1.3590   17.8758 H   0  0  0  0  0  0  0  0  0  0  0  0
  -10.0709    2.2049   18.5717 H   0  0  0  0  0  0  0  0  0  0  0  0
   -8.9483    3.2424   19.4355 H   0  0  0  0  0  0  0  0  0  0  0  0
  -10.7705    4.5421   18.5010 H   0  0  0  0  0  0  0  0  0  0  0  0
   -9.2554    5.0234   17.7531 H   0  0  0  0  0  0  0  0  0  0  0  0
  -11.1378    4.8854   16.1551 H   0  0  0  0  0  0  0  0  0  0  0  0
   -9.7707    3.8900   15.6999 H   0  0  0  0  0  0  0  0  0  0  0  0
  -11.8085    2.6942   15.2531 H   0  0  0  0  0  0  0  0  0  0  0  0
  -10.9211    1.8651   16.5224 H   0  0  0  0  0  0  0  0  0  0  0  0
  -13.2528    1.8342   17.0736 H   0  0  0  0  0  0  0  0  0  0  0  0
  -12.4214    2.8526   18.2371 H   0  0  0  0  0  0  0  0  0  0  0  0
  -14.5462    3.8358   17.6071 H   0  0  0  0  0  0  0  0  0  0  0  0
  -13.2217    4.8825   17.1308 H   0  0  0  0  0  0  0  0  0  0  0  0
  -14.9414    4.8277   15.4150 H   0  0  0  0  0  0  0  0  0  0  0  0
  -13.4273    4.2000   14.7935 H   0  0  0  0  0  0  0  0  0  0  0  0
  -15.2758    2.8729   13.9722 H   0  0  0  0  0  0  0  0  0  0  0  0
  -14.2479    1.8868   14.9987 H   0  0  0  0  0  0  0  0  0  0  0  0
  -16.5788    1.3832   15.4184 H   0  0  0  0  0  0  0  0  0  0  0  0
  -15.8396    2.0627   16.8575 H   0  0  0  0  0  0  0  0  0  0  0  0
  -18.0797    2.9341   16.5598 H   0  0  0  0  0  0  0  0  0  0  0  0
  -16.9013    4.2341   16.4502 H   0  0  0  0  0  0  0  0  0  0  0  0
  -18.6273    4.5502   14.7956 H   0  0  0  0  0  0  0  0  0  0  0  0
  -17.1095    4.2241   13.9705 H   0  0  0  0  0  0  0  0  0  0  0  0
  -19.2939    2.1469   14.4738 H   0  0  0  0  0  0  0  0  0  0  0  0
  -19.0501    3.0091   12.9552 H   0  0  0  0  0  0  0  0  0  0  0  0
  -17.8231    1.8873   13.5336 H   0  0  0  0  0  0  0  0  0  0  0  0
   -2.8458    1.7084   19.8077 H   0  0  0  0  0  0  0  0  0  0  0  0
   -0.4423    2.2248   19.6557 H   0  0  0  0  0  0  0  0  0  0  0  0
    0.6759    2.4029   17.4871 H   0  0  0  0  0  0  0  0  0  0  0  0
   -0.5567    2.0879   15.3891 H   0  0  0  0  0  0  0  0  0  0  0  0
   -8.2272    2.0254    8.7052 H   0  0  0  0  0  0  0  0  0  0  0  0
  -10.4155    1.7547    7.6266 H   0  0  0  0  0  0  0  0  0  0  0  0
  -12.3469    0.9100    8.8675 H   0  0  0  0  0  0  0  0  0  0  0  0
  -12.1610    0.2954   11.2453 H   0  0  0  0  0  0  0  0  0  0  0  0
  -10.1512    0.2519   14.6010 H   0  0  0  0  0  0  0  0  0  0  0  0
  -11.4902    0.5710   13.5031 H   0  0  0  0  0  0  0  0  0  0  0  0
  -11.6421   -1.7452   14.0387 H   0  0  0  0  0  0  0  0  0  0  0  0
  -11.0403   -1.6528   12.3876 H   0  0  0  0  0  0  0  0  0  0  0  0
   -9.8066   -3.3606   13.4698 H   0  0  0  0  0  0  0  0  0  0  0  0
   -8.7049   -2.0052   13.2502 H   0  0  0  0  0  0  0  0  0  0  0  0
   -8.4148   -3.0793   15.4253 H   0  0  0  0  0  0  0  0  0  0  0  0
   -8.9114   -1.4080   15.6304 H   0  0  0  0  0  0  0  0  0  0  0  0
  -11.1683   -2.0659   16.2357 H   0  0  0  0  0  0  0  0  0  0  0  0
  -10.8841   -3.7210   15.7030 H   0  0  0  0  0  0  0  0  0  0  0  0
  -10.8613   -3.5627   18.1406 H   0  0  0  0  0  0  0  0  0  0  0  0
   -9.3148   -4.1152   17.5137 H   0  0  0  0  0  0  0  0  0  0  0  0
   -9.0112   -2.5470   19.3532 H   0  0  0  0  0  0  0  0  0  0  0  0
   -8.2948   -1.9435   17.8692 H   0  0  0  0  0  0  0  0  0  0  0  0
   -9.3791   -0.1415   19.0621 H   0  0  0  0  0  0  0  0  0  0  0  0
  -10.1956   -0.4102   17.5273 H   0  0  0  0  0  0  0  0  0  0  0  0
  -11.8253    0.0373   19.2372 H   0  0  0  0  0  0  0  0  0  0  0  0
  -12.0177   -1.6160   18.6817 H   0  0  0  0  0  0  0  0  0  0  0  0
  -12.2797   -1.4769   21.0937 H   0  0  0  0  0  0  0  0  0  0  0  0
  -10.9090   -2.4890   20.6772 H   0  0  0  0  0  0  0  0  0  0  0  0
  -10.3964   -1.0943   22.5967 H   0  0  0  0  0  0  0  0  0  0  0  0
   -9.3319   -0.7126   21.2570 H   0  0  0  0  0  0  0  0  0  0  0  0
   -9.9993    1.3188   22.3825 H   0  0  0  0  0  0  0  0  0  0  0  0
  -10.6291    1.3183   20.7454 H   0  0  0  0  0  0  0  0  0  0  0  0
  -12.2817    2.2057   22.2699 H   0  0  0  0  0  0  0  0  0  0  0  0
  -12.8703    0.7182   21.5487 H   0  0  0  0  0  0  0  0  0  0  0  0
  -13.4601    0.8264   23.8998 H   0  0  0  0  0  0  0  0  0  0  0  0
  -12.3934   -0.5376   23.5956 H   0  0  0  0  0  0  0  0  0  0  0  0
  -11.7938    0.5337   25.6746 H   0  0  0  0  0  0  0  0  0  0  0  0
  -10.4759    0.7382   24.5293 H   0  0  0  0  0  0  0  0  0  0  0  0
  -12.5839    2.8625   25.1483 H   0  0  0  0  0  0  0  0  0  0  0  0
  -10.9605    2.8191   25.8353 H   0  0  0  0  0  0  0  0  0  0  0  0
  -11.1754    3.0822   24.1080 H   0  0  0  0  0  0  0  0  0  0  0  0
  1  2  1  0  0  0  0
  2  3  1  0  0  0  0
  3  4  1  0  0  0  0
  4  5  1  0  0  0  0
  5  6  1  0  0  0  0
  6  7  1  0  0  0  0
  7  8  1  0  0  0  0
  8  9  1  0  0  0  0
  9 10  1  0  0  0  0
 10 11  1  0  0  0  0
 11 12  1  0  0  0  0
 12 13  1  0  0  0  0
 13 14  1  0  0  0  0
 14 15  1  0  0  0  0
 15 16  1  0  0  0  0
 16 17  1  0  0  0  0
 17 18  4  0  0  0  0
 18 19  4  0  0  0  0
 19 20  4  0  0  0  0
 20 21  4  0  0  0  0
 21 22  4  0  0  0  0
 22 23  4  0  0  0  0
 23 24  1  0  0  0  0
 24 25  1  0  0  0  0
 25 26  1  0  0  0  0
 26 27  1  0  0  0  0
 27 28  1  0  0  0  0
 28 29  1  0  0  0  0
 29 30  1  0  0  0  0
 30 31  1  0  0  0  0
 31 32  1  0  0  0  0
 32 33  1  0  0  0  0
 33 34  1  0  0  0  0
 34 35  1  0  0  0  0
 35 36  1  0  0  0  0
 36 37  1  0  0  0  0
 37 38  1  0  0  0  0
 38 39  1  0  0  0  0
 23 40  1  0  0  0  0
 40 41  4  0  0  0  0
 22 42  4  0  0  0  0
 41 42  1  0  0  0  0
 42 43  1  0  0  0  0
 43 44  1  0  0  0  0
 44 45  1  0  0  0  0
 45 46  1  0  0  0  0
 46 47  1  0  0  0  0
 47 48  1  0  0  0  0
 48 49  1  0  0  0  0
 49 50  1  0  0  0  0
 50 51  1  0  0  0  0
 51 52  1  0  0  0  0
 52 53  1  0  0  0  0
 53 54  1  0  0  0  0
 54 55  1  0  0  0  0
 55 56  1  0  0  0  0
 56 57  1  0  0  0  0
 57 58  1  0  0  0  0
 41 59  4  0  0  0  0
 59 60  4  0  0  0  0
 60 61  4  0  0  0  0
 40 62  4  0  0  0  0
 61 62  4  0  0  0  0
 18 63  4  0  0  0  0
 63 64  1  0  0  0  0
 17 65  1  0  0  0  0
 64 65  4  0  0  0  0
 65 66  4  0  0  0  0
 66 67  4  0  0  0  0
 67 68  4  0  0  0  0
 64 69  4  0  0  0  0
 68 69  4  0  0  0  0
 63 70  1  0  0  0  0
 70 71  1  0  0  0  0
 71 72  1  0  0  0  0
 72 73  1  0  0  0  0
 73 74  1  0  0  0  0
 74 75  1  0  0  0  0
 75 76  1  0  0  0  0
 76 77  1  0  0  0  0
 77 78  1  0  0  0  0
 78 79  1  0  0  0  0
 79 80  1  0  0  0  0
 80 81  1  0  0  0  0
 81 82  1  0  0  0  0
 82 83  1  0  0  0  0
 83 84  1  0  0  0  0
 84 85  1  0  0  0  0
  1 86  1  0  0  0  0
  1 87  1  0  0  0  0
  1 88  1  0  0  0  0
  2 89  1  0  0  0  0
  2 90  1  0  0  0  0
  3 91  1  0  0  0  0
  3 92  1  0  0  0  0
  4 93  1  0  0  0  0
  4 94  1  0  0  0  0
  5 95  1  0  0  0  0
  5 96  1  0  0  0  0
  6 97  1  0  0  0  0
  6 98  1  0  0  0  0
  7 99  1  0  0  0  0
  7100  1  0  0  0  0
  8101  1  0  0  0  0
  8102  1  0  0  0  0
  9103  1  0  0  0  0
  9104  1  0  0  0  0
 10105  1  0  0  0  0
 10106  1  0  0  0  0
 11107  1  0  0  0  0
 11108  1  0  0  0  0
 12109  1  0  0  0  0
 12110  1  0  0  0  0
 13111  1  0  0  0  0
 13112  1  0  0  0  0
 14113  1  0  0  0  0
 14114  1  0  0  0  0
 15115  1  0  0  0  0
 15116  1  0  0  0  0
 16117  1  0  0  0  0
 16118  1  0  0  0  0
 19119  1  0  0  0  0
 20120  1  0  0  0  0
 21121  1  0  0  0  0
 24122  1  0  0  0  0
 24123  1  0  0  0  0
 25124  1  0  0  0  0
 25125  1  0  0  0  0
 26126  1  0  0  0  0
 26127  1  0  0  0  0
 27128  1  0  0  0  0
 27129  1  0  0  0  0
 28130  1  0  0  0  0
 28131  1  0  0  0  0
 29132  1  0  0  0  0
 29133  1  0  0  0  0
 30134  1  0  0  0  0
 30135  1  0  0  0  0
 31136  1  0  0  0  0
 31137  1  0  0  0  0
 32138  1  0  0  0  0
 32139  1  0  0  0  0
 33140  1  0  0  0  0
 33141  1  0  0  0  0
 34142  1  0  0  0  0
 34143  1  0  0  0  0
 35144  1  0  0  0  0
 35145  1  0  0  0  0
 36146  1  0  0  0  0
 36147  1  0  0  0  0
 37148  1  0  0  0  0
 37149  1  0  0  0  0
 38150  1  0  0  0  0
 38151  1  0  0  0  0
 39152  1  0  0  0  0
 39153  1  0  0  0  0
 39154  1  0  0  0  0
 43155  1  0  0  0  0
 43156  1  0  0  0  0
 44157  1  0  0  0  0
 44158  1  0  0  0  0
 45159  1  0  0  0  0
 45160  1  0  0  0  0
 46161  1  0  0  0  0
 46162  1  0  0  0  0
 47163  1  0  0  0  0
 47164  1  0  0  0  0
 48165  1  0  0  0  0
 48166  1  0  0  0  0
 49167  1  0  0  0  0
 49168  1  0  0  0  0
 50169  1  0  0  0  0
 50170  1  0  0  0  0
 51171  1  0  0  0  0
 51172  1  0  0  0  0
 52173  1  0  0  0  0
 52174  1  0  0  0  0
 53175  1  0  0  0  0
 53176  1  0  0  0  0
 54177  1  0  0  0  0
 54178  1  0  0  0  0
 55179  1  0  0  0  0
 55180  1  0  0  0  0
 56181  1  0  0  0  0
 56182  1  0  0  0  0
 57183  1  0  0  0  0
 57184  1  0  0  0  0
 58185  1  0  0  0  0
 58186  1  0  0  0  0
 58187  1  0  0  0  0
 59188  1  0  0  0  0
 60189  1  0  0  0  0
 61190  1  0  0  0  0
 62191  1  0  0  0  0
 66192  1  0  0  0  0
 67193  1  0  0  0  0
 68194  1  0  0  0  0
 69195  1  0  0  0  0
 70196  1  0  0  0  0
 70197  1  0  0  0  0
 71198  1  0  0  0  0
 71199  1  0  0  0  0
 72200  1  0  0  0  0
 72201  1  0  0  0  0
 73202  1  0  0  0  0
 73203  1  0  0  0  0
 74204  1  0  0  0  0
 74205  1  0  0  0  0
 75206  1  0  0  0  0
 75207  1  0  0  0  0
 76208  1  0  0  0  0
 76209  1  0  0  0  0
 77210  1  0  0  0  0
 77211  1  0  0  0  0
 78212  1  0  0  0  0
 78213  1  0  0  0  0
 79214  1  0  0  0  0
 79215  1  0  0  0  0
 80216  1  0  0  0  0
 80217  1  0  0  0  0
 81218  1  0  0  0  0
 81219  1  0  0  0  0
 82220  1  0  0  0  0
 82221  1  0  0  0  0
 83222  1  0  0  0  0
 83223  1  0  0  0  0
 84224  1  0  0  0  0
 84225  1  0  0  0  0
 85226  1  0  0  0  0
 85227  1  0  0  0  0
 85228  1  0  0  0  0
M  CHG  1   1   1
M  END
