 xtb: 6.7.1 (edcfbbe)
          12202402153D

 67 67  0     0  0            999 V2000
    1.2279    0.4757    0.2009 C   0  0  0  0  0  0  0  0  0  0  0  0
    1.0788    1.0130   -1.2176 C   0  0  0  0  0  0  0  0  0  0  0  0
    1.3734   -0.0332   -2.2937 C   0  0  0  0  0  0  0  0  0  0  0  0
    0.4432   -1.2481   -2.2860 C   0  0  0  0  0  0  0  0  0  0  0  0
   -1.0406   -0.9289   -2.4784 C   0  0  0  0  0  0  0  0  0  0  0  0
   -1.3828   -0.2041   -3.7819 C   0  0  0  0  0  0  0  0  0  0  0  0
   -0.9574   -0.9303   -5.0597 C   0  0  0  0  0  0  0  0  0  0  0  0
   -1.5164   -2.3518   -5.2124 C   0  0  0  0  0  0  0  0  0  0  0  0
   -3.0082   -2.3823   -5.2800 C   0  0  0  0  0  0  0  0  0  0  0  0
   -3.7044   -2.8051   -6.3216 C   0  0  0  0  0  0  0  0  0  0  0  0
   -5.2002   -2.8273   -6.3830 C   0  0  0  0  0  0  0  0  0  0  0  0
   -5.7651   -1.8254   -7.3995 C   0  0  0  0  0  0  0  0  0  0  0  0
   -5.3324   -2.0691   -8.8467 C   0  0  0  0  0  0  0  0  0  0  0  0
   -5.6838   -3.4498   -9.4042 C   0  0  0  0  0  0  0  0  0  0  0  0
   -7.1713   -3.8079   -9.3551 C   0  0  0  0  0  0  0  0  0  0  0  0
   -8.0883   -2.8366  -10.1029 C   0  0  0  0  0  0  0  0  0  0  0  0
   -7.7936   -2.6837  -11.5958 C   0  0  0  0  0  0  0  0  0  0  0  0
   -7.9258   -3.9715  -12.4153 C   0  0  0  0  0  0  0  0  0  0  0  0
   -9.2612   -4.5273  -12.4072 N   0  0  0  0  0  0  0  0  0  0  0  0
  -10.3707   -3.9435  -12.9105 C   0  0  0  0  0  0  0  0  0  0  0  0
  -11.4902   -4.5949  -12.5725 C   0  0  0  0  0  0  0  0  0  0  0  0
  -11.1275   -5.7860  -11.7756 N   0  0  0  0  0  0  0  0  0  0  0  0
   -9.6548   -5.6276  -11.5521 C   0  0  0  0  0  0  0  0  0  0  0  0
  -11.4811   -7.0366  -12.4794 C   0  0  0  0  0  0  0  0  0  0  0  0
    0.4775   -0.2809    0.4152 H   0  0  0  0  0  0  0  0  0  0  0  0
    1.1106    1.2807    0.9229 H   0  0  0  0  0  0  0  0  0  0  0  0
    2.2123    0.0336    0.3387 H   0  0  0  0  0  0  0  0  0  0  0  0
    0.0717    1.4114   -1.3520 H   0  0  0  0  0  0  0  0  0  0  0  0
    1.7763    1.8433   -1.3542 H   0  0  0  0  0  0  0  0  0  0  0  0
    1.3286    0.4503   -3.2718 H   0  0  0  0  0  0  0  0  0  0  0  0
    2.3970   -0.3921   -2.1574 H   0  0  0  0  0  0  0  0  0  0  0  0
    0.7705   -1.9316   -3.0726 H   0  0  0  0  0  0  0  0  0  0  0  0
    0.5569   -1.7780   -1.3382 H   0  0  0  0  0  0  0  0  0  0  0  0
   -1.6007   -1.8657   -2.4280 H   0  0  0  0  0  0  0  0  0  0  0  0
   -1.3851   -0.3108   -1.6469 H   0  0  0  0  0  0  0  0  0  0  0  0
   -2.4619   -0.0351   -3.8070 H   0  0  0  0  0  0  0  0  0  0  0  0
   -0.9082    0.7792   -3.7798 H   0  0  0  0  0  0  0  0  0  0  0  0
   -1.2846   -0.3354   -5.9168 H   0  0  0  0  0  0  0  0  0  0  0  0
    0.1319   -0.9849   -5.0979 H   0  0  0  0  0  0  0  0  0  0  0  0
   -1.1026   -2.7917   -6.1230 H   0  0  0  0  0  0  0  0  0  0  0  0
   -1.1840   -2.9597   -4.3678 H   0  0  0  0  0  0  0  0  0  0  0  0
   -3.5272   -2.0312   -4.3980 H   0  0  0  0  0  0  0  0  0  0  0  0
   -3.1876   -3.1674   -7.2010 H   0  0  0  0  0  0  0  0  0  0  0  0
   -5.5393   -3.8360   -6.6340 H   0  0  0  0  0  0  0  0  0  0  0  0
   -5.6031   -2.5779   -5.3990 H   0  0  0  0  0  0  0  0  0  0  0  0
   -6.8558   -1.8359   -7.3330 H   0  0  0  0  0  0  0  0  0  0  0  0
   -5.4329   -0.8251   -7.1137 H   0  0  0  0  0  0  0  0  0  0  0  0
   -5.7804   -1.2952   -9.4745 H   0  0  0  0  0  0  0  0  0  0  0  0
   -4.2507   -1.9454   -8.9159 H   0  0  0  0  0  0  0  0  0  0  0  0
   -5.3283   -3.5064  -10.4358 H   0  0  0  0  0  0  0  0  0  0  0  0
   -5.1393   -4.2094   -8.8411 H   0  0  0  0  0  0  0  0  0  0  0  0
   -7.2876   -4.8211   -9.7531 H   0  0  0  0  0  0  0  0  0  0  0  0
   -7.4930   -3.8373   -8.3129 H   0  0  0  0  0  0  0  0  0  0  0  0
   -9.1300   -3.1448   -9.9668 H   0  0  0  0  0  0  0  0  0  0  0  0
   -7.9955   -1.8517   -9.6455 H   0  0  0  0  0  0  0  0  0  0  0  0
   -8.4716   -1.9333  -12.0074 H   0  0  0  0  0  0  0  0  0  0  0  0
   -6.7781   -2.3126  -11.7282 H   0  0  0  0  0  0  0  0  0  0  0  0
   -7.6554   -3.7606  -13.4539 H   0  0  0  0  0  0  0  0  0  0  0  0
   -7.2455   -4.7359  -12.0393 H   0  0  0  0  0  0  0  0  0  0  0  0
  -10.3003   -3.0633  -13.5200 H   0  0  0  0  0  0  0  0  0  0  0  0
  -12.5102   -4.4324  -12.8403 H   0  0  0  0  0  0  0  0  0  0  0  0
  -11.6296   -5.7821  -10.8822 H   0  0  0  0  0  0  0  0  0  0  0  0
   -9.1288   -6.5486  -11.8312 H   0  0  0  0  0  0  0  0  0  0  0  0
   -9.4480   -5.4074  -10.4962 H   0  0  0  0  0  0  0  0  0  0  0  0
  -11.1946   -7.9032  -11.8858 H   0  0  0  0  0  0  0  0  0  0  0  0
  -12.5548   -7.0668  -12.6560 H   0  0  0  0  0  0  0  0  0  0  0  0
  -10.9689   -7.0630  -13.4396 H   0  0  0  0  0  0  0  0  0  0  0  0
  1  2  1  0  0  0  0
  2  3  1  0  0  0  0
  3  4  1  0  0  0  0
  4  5  1  0  0  0  0
  5  6  1  0  0  0  0
  6  7  1  0  0  0  0
  7  8  1  0  0  0  0
  8  9  1  0  0  0  0
  9 10  2  0  0  0  0
 10 11  1  0  0  0  0
 11 12  1  0  0  0  0
 12 13  1  0  0  0  0
 13 14  1  0  0  0  0
 14 15  1  0  0  0  0
 15 16  1  0  0  0  0
 16 17  1  0  0  0  0
 17 18  1  0  0  0  0
 18 19  1  0  0  0  0
 19 20  4  0  0  0  0
 20 21  2  0  0  0  0
 21 22  1  0  0  0  0
 19 23  1  0  0  0  0
 22 23  1  0  0  0  0
 22 24  1  0  0  0  0
  1 25  1  0  0  0  0
  1 26  1  0  0  0  0
  1 27  1  0  0  0  0
  2 28  1  0  0  0  0
  2 29  1  0  0  0  0
  3 30  1  0  0  0  0
  3 31  1  0  0  0  0
  4 32  1  0  0  0  0
  4 33  1  0  0  0  0
  5 34  1  0  0  0  0
  5 35  1  0  0  0  0
  6 36  1  0  0  0  0
  6 37  1  0  0  0  0
  7 38  1  0  0  0  0
  7 39  1  0  0  0  0
  8 40  1  0  0  0  0
  8 41  1  0  0  0  0
  9 42  1  0  0  0  0
 10 43  1  0  0  0  0
 11 44  1  0  0  0  0
 11 45  1  0  0  0  0
 12 46  1  0  0  0  0
 12 47  1  0  0  0  0
 13 48  1  0  0  0  0
 13 49  1  0  0  0  0
 14 50  1  0  0  0  0
 14 51  1  0  0  0  0
 15 52  1  0  0  0  0
 15 53  1  0  0  0  0
 16 54  1  0  0  0  0
 16 55  1  0  0  0  0
 17 56  1  0  0  0  0
 17 57  1  0  0  0  0
 18 58  1  0  0  0  0
 18 59  1  0  0  0  0
 20 60  1  0  0  0  0
 21 61  1  0  0  0  0
 22 62  1  0  0  0  0
 23 63  1  0  0  0  0
 23 64  1  0  0  0  0
 24 65  1  0  0  0  0
 24 66  1  0  0  0  0
 24 67  1  0  0  0  0
M  CHG  1   1   1
M  END
