 xtb: 6.7.1 (edcfbbe)
          12202402173D

 37 38  0     0  0            999 V2000
    1.4633   -1.0186   -0.8196 C   0  0  0  0  0  0  0  0  0  0  0  0
    0.3853   -0.2532   -0.1085 C   0  0  0  0  0  0  0  0  0  0  0  0
   -0.7046   -0.9797    0.3673 C   0  0  0  0  0  0  0  0  0  0  0  0
   -1.7338   -0.3803    1.0653 C   0  0  0  0  0  0  0  0  0  0  0  0
   -1.6797    0.9779    1.3313 C   0  0  0  0  0  0  0  0  0  0  0  0
   -0.6108    1.7157    0.8650 C   0  0  0  0  0  0  0  0  0  0  0  0
    0.4137    1.1273    0.1206 C   0  0  0  0  0  0  0  0  0  0  0  0
    1.5418    2.0118   -0.3455 C   0  0  0  0  0  0  0  0  0  0  0  0
    1.3180    2.6710   -1.6868 N   0  0  0  0  0  0  0  0  0  0  0  0
    2.5378    3.4545   -2.0146 C   0  0  0  0  0  0  0  0  0  0  0  0
    2.5131    4.8349   -2.1426 C   0  0  0  0  0  0  0  0  0  0  0  0
    3.6784    5.5238   -2.4467 C   0  0  0  0  0  0  0  0  0  0  0  0
    4.8719    4.8496   -2.6227 C   0  0  0  0  0  0  0  0  0  0  0  0
    4.8975    3.4715   -2.4930 C   0  0  0  0  0  0  0  0  0  0  0  0
    3.7400    2.7769   -2.1911 C   0  0  0  0  0  0  0  0  0  0  0  0
    0.1076    3.5086   -1.6140 C   0  0  0  0  0  0  0  0  0  0  0  0
    1.0895    1.6700   -2.7477 C   0  0  0  0  0  0  0  0  0  0  0  0
    1.5431   -2.0112   -0.3835 H   0  0  0  0  0  0  0  0  0  0  0  0
    1.2180   -1.1529   -1.8730 H   0  0  0  0  0  0  0  0  0  0  0  0
    2.4403   -0.5493   -0.7442 H   0  0  0  0  0  0  0  0  0  0  0  0
   -0.7332   -2.0440    0.1896 H   0  0  0  0  0  0  0  0  0  0  0  0
   -2.5626   -0.9720    1.4200 H   0  0  0  0  0  0  0  0  0  0  0  0
   -2.4573    1.4565    1.9047 H   0  0  0  0  0  0  0  0  0  0  0  0
   -0.5583    2.7685    1.1022 H   0  0  0  0  0  0  0  0  0  0  0  0
    1.6910    2.8232    0.3713 H   0  0  0  0  0  0  0  0  0  0  0  0
    2.4694    1.4452   -0.4057 H   0  0  0  0  0  0  0  0  0  0  0  0
    1.6117    5.4089   -2.0160 H   0  0  0  0  0  0  0  0  0  0  0  0
    3.6405    6.5970   -2.5444 H   0  0  0  0  0  0  0  0  0  0  0  0
    5.7740    5.3905   -2.8583 H   0  0  0  0  0  0  0  0  0  0  0  0
    5.8195    2.9285   -2.6261 H   0  0  0  0  0  0  0  0  0  0  0  0
    3.8028    1.7039   -2.0997 H   0  0  0  0  0  0  0  0  0  0  0  0
   -0.0642    4.0038   -2.5679 H   0  0  0  0  0  0  0  0  0  0  0  0
   -0.7485    2.8742   -1.3894 H   0  0  0  0  0  0  0  0  0  0  0  0
    0.2024    4.2522   -0.8258 H   0  0  0  0  0  0  0  0  0  0  0  0
    1.9327    0.9913   -2.8309 H   0  0  0  0  0  0  0  0  0  0  0  0
    0.1931    1.0965   -2.5195 H   0  0  0  0  0  0  0  0  0  0  0  0
    0.9586    2.1792   -3.7016 H   0  0  0  0  0  0  0  0  0  0  0  0
  1  2  1  0  0  0  0
  2  3  4  0  0  0  0
  3  4  4  0  0  0  0
  4  5  4  0  0  0  0
  5  6  4  0  0  0  0
  2  7  4  0  0  0  0
  6  7  4  0  0  0  0
  7  8  1  0  0  0  0
  8  9  1  0  0  0  0
  9 10  1  0  0  0  0
 10 11  4  0  0  0  0
 11 12  4  0  0  0  0
 12 13  4  0  0  0  0
 13 14  4  0  0  0  0
 10 15  4  0  0  0  0
 14 15  4  0  0  0  0
  9 16  1  0  0  0  0
  9 17  1  0  0  0  0
  1 18  1  0  0  0  0
  1 19  1  0  0  0  0
  1 20  1  0  0  0  0
  3 21  1  0  0  0  0
  4 22  1  0  0  0  0
  5 23  1  0  0  0  0
  6 24  1  0  0  0  0
  8 25  1  0  0  0  0
  8 26  1  0  0  0  0
 11 27  1  0  0  0  0
 12 28  1  0  0  0  0
 13 29  1  0  0  0  0
 14 30  1  0  0  0  0
 15 31  1  0  0  0  0
 16 32  1  0  0  0  0
 16 33  1  0  0  0  0
 16 34  1  0  0  0  0
 17 35  1  0  0  0  0
 17 36  1  0  0  0  0
 17 37  1  0  0  0  0
M  CHG  1   1   1
M  END
