37

C          2.33750       -0.32883        0.20486
C          0.84648       -0.11591        0.18482
C          0.02677       -1.25250        0.29905
C         -1.36097       -1.13931        0.32675
C         -1.95378        0.11378        0.25353
C         -1.15857        1.25250        0.12721
C          0.24654        1.15841        0.05553
C          1.05424        2.42374       -0.15044
N          0.97037        3.10204       -1.55567
C          2.39482        3.42332       -2.00015
C          2.91892        4.72338       -1.97333
C          4.23773        4.96810       -2.37612
C          5.05205        3.92218       -2.79768
C          4.55355        2.62485       -2.81688
C          3.23685        2.37895       -2.41990
C          0.11930        4.36589       -1.45007
C          0.32027        2.23197       -2.64055
H          2.59251       -1.33451        0.55728
H          2.75097       -0.21345       -0.79913
H          2.82394        0.36971        0.89230
H          0.46768       -2.24576        0.38354
H         -1.97661       -2.03116        0.42525
H         -3.03743        0.20083        0.29958
H         -1.65856        2.21751        0.08366
H          0.72835        3.16785        0.58878
H          2.11079        2.25432        0.07679
H          2.34808        5.58568       -1.64925
H          4.63443        5.98281       -2.35940
H          6.07723        4.11716       -3.10867
H          5.19153        1.80433       -3.14032
H          2.90025        1.34756       -2.44611
H          0.12180        4.88117       -2.41627
H         -0.90353        4.07372       -1.19427
H          0.51124        5.00687       -0.65404
H          0.76010        1.23202       -2.63746
H         -0.75370        2.16426       -2.44401
H          0.47087        2.71857       -3.61070
