 xtb: 6.7.1 (edcfbbe)
          12202402153D

 44 46  0     0  0            999 V2000
    2.2051    1.1595    2.2508 O   0  0  0  0  0  0  0  0  0  0  0  0
    3.1784    0.9999    1.5348 C   0  0  0  0  0  0  0  0  0  0  0  0
    3.6897    1.9437    0.5883 C   0  0  0  0  0  0  0  0  0  0  0  0
    4.8671    1.7667   -0.1604 C   0  0  0  0  0  0  0  0  0  0  0  0
    5.2985    2.7242   -1.0363 C   0  0  0  0  0  0  0  0  0  0  0  0
    4.5825    3.9301   -1.2320 C   0  0  0  0  0  0  0  0  0  0  0  0
    3.4006    4.1042   -0.4734 C   0  0  0  0  0  0  0  0  0  0  0  0
    2.9771    3.1463    0.4018 C   0  0  0  0  0  0  0  0  0  0  0  0
    5.0090    4.8678   -2.0988 N   0  0  0  0  0  0  0  0  0  0  0  0
    6.1693    4.6401   -2.9295 C   0  0  0  0  0  0  0  0  0  0  0  0
    4.3140    6.1286   -2.2265 C   0  0  0  0  0  0  0  0  0  0  0  0
    3.9555   -0.3575    1.6847 C   0  0  0  0  0  0  0  0  0  0  0  0
    3.1313   -1.2240    2.4654 N   0  0  0  0  0  0  0  0  0  0  0  0
    2.4818   -2.3463    2.0376 C   0  0  0  0  0  0  0  0  0  0  0  0
    1.5811   -2.6965    2.9931 C   0  0  0  0  0  0  0  0  0  0  0  0
    1.6902   -1.7640    3.9818 N   0  0  0  0  0  0  0  0  0  0  0  0
    2.6197   -0.8696    3.6444 C   0  0  0  0  0  0  0  0  0  0  0  0
    0.9398   -1.7002    5.1047 O   0  0  0  0  0  0  0  0  0  0  0  0
    1.1640   -2.6925    6.0784 C   0  0  0  0  0  0  0  0  0  0  0  0
    0.2271   -2.7311    7.0997 C   0  0  0  0  0  0  0  0  0  0  0  0
    0.3792   -3.6563    8.1152 C   0  0  0  0  0  0  0  0  0  0  0  0
    1.4514   -4.5350    8.1053 C   0  0  0  0  0  0  0  0  0  0  0  0
    2.3763   -4.4849    7.0788 C   0  0  0  0  0  0  0  0  0  0  0  0
    2.2410   -3.5596    6.0544 C   0  0  0  0  0  0  0  0  0  0  0  0
    5.4636    0.8749   -0.0445 H   0  0  0  0  0  0  0  0  0  0  0  0
    6.2138    2.5492   -1.5756 H   0  0  0  0  0  0  0  0  0  0  0  0
    2.8116    4.9981   -0.5844 H   0  0  0  0  0  0  0  0  0  0  0  0
    2.0726    3.2906    0.9726 H   0  0  0  0  0  0  0  0  0  0  0  0
    6.0694    3.7084   -3.4901 H   0  0  0  0  0  0  0  0  0  0  0  0
    6.2692    5.4517   -3.6445 H   0  0  0  0  0  0  0  0  0  0  0  0
    7.0832    4.5971   -2.3307 H   0  0  0  0  0  0  0  0  0  0  0  0
    3.3242    5.9919   -2.6704 H   0  0  0  0  0  0  0  0  0  0  0  0
    4.2014    6.6097   -1.2531 H   0  0  0  0  0  0  0  0  0  0  0  0
    4.8856    6.7956   -2.8658 H   0  0  0  0  0  0  0  0  0  0  0  0
    4.1491   -0.8130    0.7149 H   0  0  0  0  0  0  0  0  0  0  0  0
    4.8985   -0.1499    2.1961 H   0  0  0  0  0  0  0  0  0  0  0  0
    2.7026   -2.8156    1.1006 H   0  0  0  0  0  0  0  0  0  0  0  0
    0.8882   -3.5114    3.0459 H   0  0  0  0  0  0  0  0  0  0  0  0
    2.9111   -0.0357    4.2512 H   0  0  0  0  0  0  0  0  0  0  0  0
   -0.5952   -2.0351    7.0830 H   0  0  0  0  0  0  0  0  0  0  0  0
   -0.3434   -3.6902    8.9152 H   0  0  0  0  0  0  0  0  0  0  0  0
    1.5662   -5.2566    8.8982 H   0  0  0  0  0  0  0  0  0  0  0  0
    3.2143   -5.1638    7.0667 H   0  0  0  0  0  0  0  0  0  0  0  0
    2.9742   -3.5277    5.2611 H   0  0  0  0  0  0  0  0  0  0  0  0
  1  2  2  0  0  0  0
  2  3  1  0  0  0  0
  3  4  4  0  0  0  0
  4  5  2  0  0  0  0
  5  6  4  0  0  0  0
  6  7  4  0  0  0  0
  3  8  4  0  0  0  0
  7  8  2  0  0  0  0
  6  9  4  0  0  0  0
  9 10  1  0  0  0  0
  9 11  1  0  0  0  0
  2 12  1  0  0  0  0
 12 13  1  0  0  0  0
 13 14  4  0  0  0  0
 14 15  2  0  0  0  0
 15 16  1  0  0  0  0
 13 17  4  0  0  0  0
 16 17  4  0  0  0  0
 16 18  1  0  0  0  0
 18 19  1  0  0  0  0
 19 20  4  0  0  0  0
 20 21  4  0  0  0  0
 21 22  4  0  0  0  0
 22 23  4  0  0  0  0
 19 24  4  0  0  0  0
 23 24  4  0  0  0  0
  4 25  1  0  0  0  0
  5 26  1  0  0  0  0
  7 27  1  0  0  0  0
  8 28  1  0  0  0  0
 10 29  1  0  0  0  0
 10 30  1  0  0  0  0
 10 31  1  0  0  0  0
 11 32  1  0  0  0  0
 11 33  1  0  0  0  0
 11 34  1  0  0  0  0
 12 35  1  0  0  0  0
 12 36  1  0  0  0  0
 14 37  1  0  0  0  0
 15 38  1  0  0  0  0
 17 39  1  0  0  0  0
 20 40  1  0  0  0  0
 21 41  1  0  0  0  0
 22 42  1  0  0  0  0
 23 43  1  0  0  0  0
 24 44  1  0  0  0  0
M  CHG  1   1   1
M  END
