77

C          1.18448        0.72492        0.59443
C          0.96730        0.74853       -0.91002
C          1.36429       -0.55712       -1.60169
C          0.56473       -1.79741       -1.18599
C         -0.95186       -1.71953       -1.40077
C         -1.40863       -1.34655       -2.81563
C         -0.86749       -2.23583       -3.93864
C         -1.40563       -3.67129       -3.95606
C         -2.86118       -3.83052       -4.41573
C         -3.22421       -3.35213       -5.83077
N         -2.95012       -4.32973       -7.00822
C         -3.63818       -5.73249       -6.76647
C         -5.15474       -5.75201       -6.52098
C         -6.10115       -5.71385       -7.73258
C         -5.80429       -6.70512       -8.86258
C         -6.08338       -8.17298       -8.52658
C         -7.56300       -8.52902       -8.33180
C         -8.49470       -8.16673       -9.49566
C         -8.10366       -8.74015      -10.86257
C         -8.06241      -10.26742      -10.94625
C         -9.41833      -10.91874      -10.72248
C         -3.55693       -3.73548       -8.30748
C         -2.87249       -2.50524       -8.87501
C         -1.45069       -4.68900       -7.20659
C         -0.46940       -3.53226       -7.29898
H          0.52275        0.00446        1.08362
H          0.97412        1.71170        1.01929
H          2.21996        0.46626        0.83748
H         -0.07721        0.99686       -1.12573
H          1.57202        1.55935       -1.33445
H          1.28280       -0.41487       -2.68551
H          2.42650       -0.75202       -1.40609
H          0.96045       -2.66167       -1.73329
H          0.75414       -2.01373       -0.12771
H         -1.39025       -2.68470       -1.12059
H         -1.37476       -0.98962       -0.69967
H         -2.50432       -1.34116       -2.84210
H         -1.10455       -0.31339       -3.02269
H         -1.08131       -1.73923       -4.88832
H          0.22550       -2.27947       -3.87850
H         -0.75077       -4.27923       -4.58282
H         -1.31441       -4.10253       -2.95207
H         -3.16654       -4.86859       -4.25942
H         -3.48317       -3.25397       -3.71842
H         -4.30217       -3.15666       -5.85601
H         -2.74924       -2.39970       -6.06505
H         -3.36026       -6.36716       -7.61353
H         -3.13970       -6.16401       -5.89174
H         -5.36728       -6.69236       -5.99389
H         -5.44940       -4.96787       -5.81729
H         -7.12304       -5.87498       -7.36810
H         -6.12337       -4.70913       -8.15917
H         -6.39248       -6.41271       -9.73952
H         -4.76262       -6.61209       -9.18408
H         -5.67423       -8.79460       -9.33212
H         -5.53051       -8.45705       -7.62352
H         -7.63669       -9.60522       -8.13397
H         -7.93678       -8.03745       -7.42575
H         -9.51101       -8.49008       -9.24136
H         -8.55351       -7.07515       -9.58325
H         -8.81497       -8.36506      -11.60945
H         -7.12465       -8.34727      -11.16022
H         -7.70563      -10.54739      -11.94500
H         -7.33696      -10.67329      -10.23332
H        -10.16555      -10.51679      -11.41429
H         -9.34919      -11.99827      -10.89039
H         -9.77402      -10.76382       -9.69986
H         -3.56724       -4.53170       -9.05824
H         -4.58041       -3.44892       -8.06262
H         -1.92856       -2.75476       -9.36242
H         -3.50840       -2.07266       -9.65622
H         -2.70765       -1.72359       -8.13086
H         -1.17206       -5.33884       -6.37134
H         -1.39186       -5.29604       -8.11843
H         -0.84141       -2.58140       -6.92468
H          0.43972       -3.77588       -6.73762
H         -0.14390       -3.38582       -8.33363
