 xtb: 6.7.1 (edcfbbe)
          12202406413D

 19 19  0     0  0            999 V2000
    0.7952    0.1170   -0.2130 O   0  0  0  0  0  0  0  0  0  0  0  0
    0.3640   -1.0667    0.2121 C   0  0  0  0  0  0  0  0  0  0  0  0
    1.0676   -1.9709    0.5539 O   0  0  0  0  0  0  0  0  0  0  0  0
   -1.1306   -1.1644    0.2323 C   0  0  0  0  0  0  0  0  0  0  0  0
   -1.9068   -0.1163   -0.0243 C   0  0  0  0  0  0  0  0  0  0  0  0
   -3.3186   -0.1248   -0.0170 N   0  0  0  0  0  0  0  0  0  0  0  0
   -4.0117   -1.0276    0.6989 C   0  0  0  0  0  0  0  0  0  0  0  0
   -5.3896   -1.0403    0.6858 C   0  0  0  0  0  0  0  0  0  0  0  0
   -6.0764   -0.1010   -0.0748 C   0  0  0  0  0  0  0  0  0  0  0  0
   -5.3441    0.8341   -0.7974 C   0  0  0  0  0  0  0  0  0  0  0  0
   -3.9679    0.8009   -0.7468 C   0  0  0  0  0  0  0  0  0  0  0  0
    1.7668    0.1524   -0.2135 H   0  0  0  0  0  0  0  0  0  0  0  0
   -1.4890   -2.1556    0.4687 H   0  0  0  0  0  0  0  0  0  0  0  0
   -1.4645    0.8326   -0.2965 H   0  0  0  0  0  0  0  0  0  0  0  0
   -3.4476   -1.7265    1.2970 H   0  0  0  0  0  0  0  0  0  0  0  0
   -5.9186   -1.7752    1.2717 H   0  0  0  0  0  0  0  0  0  0  0  0
   -7.1550   -0.0928   -0.0974 H   0  0  0  0  0  0  0  0  0  0  0  0
   -5.8359    1.5855   -1.3945 H   0  0  0  0  0  0  0  0  0  0  0  0
   -3.3646    1.5083   -1.2974 H   0  0  0  0  0  0  0  0  0  0  0  0
  1  2  1  0  0  0  0
  2  3  2  0  0  0  0
  2  4  1  0  0  0  0
  4  5  2  0  0  0  0
  5  6  1  0  0  0  0
  6  7  4  0  0  0  0
  7  8  4  0  0  0  0
  8  9  4  0  0  0  0
  9 10  4  0  0  0  0
  6 11  4  0  0  0  0
 10 11  4  0  0  0  0
  1 12  1  0  0  0  0
  4 13  1  0  0  0  0
  5 14  1  0  0  0  0
  7 15  1  0  0  0  0
  8 16  1  0  0  0  0
  9 17  1  0  0  0  0
 10 18  1  0  0  0  0
 11 19  1  0  0  0  0
M  CHG  1   1   1
M  END
