 xtb: 6.7.1 (edcfbbe)
          12202406413D

 15 15  0     0  0            999 V2000
   -2.3759   -0.0084    0.0481 C   0  0  0  0  0  0  0  0  0  0  0  0
   -0.9310    0.0136    0.0316 N   0  0  0  0  0  0  0  0  0  0  0  0
   -0.2669   -1.1500    0.0286 C   0  0  0  0  0  0  0  0  0  0  0  0
    1.1112   -1.1864    0.0168 C   0  0  0  0  0  0  0  0  0  0  0  0
    1.8219    0.0085    0.0079 C   0  0  0  0  0  0  0  0  0  0  0  0
    1.1152    1.2034    0.0118 C   0  0  0  0  0  0  0  0  0  0  0  0
   -0.2657    1.1725    0.0238 C   0  0  0  0  0  0  0  0  0  0  0  0
   -2.7539   -0.5742   -0.8046 H   0  0  0  0  0  0  0  0  0  0  0  0
   -2.7340   -0.4875    0.9609 H   0  0  0  0  0  0  0  0  0  0  0  0
   -2.7766    1.0018    0.0036 H   0  0  0  0  0  0  0  0  0  0  0  0
   -0.8582   -2.0545    0.0359 H   0  0  0  0  0  0  0  0  0  0  0  0
    1.6200   -2.1372    0.0144 H   0  0  0  0  0  0  0  0  0  0  0  0
    2.9006    0.0069   -0.0016 H   0  0  0  0  0  0  0  0  0  0  0  0
    1.6259    2.1532    0.0054 H   0  0  0  0  0  0  0  0  0  0  0  0
   -0.8473    2.0830    0.0273 H   0  0  0  0  0  0  0  0  0  0  0  0
  1  2  1  0  0  0  0
  2  3  4  0  0  0  0
  3  4  4  0  0  0  0
  4  5  4  0  0  0  0
  5  6  4  0  0  0  0
  2  7  4  0  0  0  0
  6  7  4  0  0  0  0
  1  8  1  0  0  0  0
  1  9  1  0  0  0  0
  1 10  1  0  0  0  0
  3 11  1  0  0  0  0
  4 12  1  0  0  0  0
  5 13  1  0  0  0  0
  6 14  1  0  0  0  0
  7 15  1  0  0  0  0
M  CHG  1   1   1
M  END
