 xtb: 6.7.1 (edcfbbe)
          12202406413D

 42 43  0     0  0            999 V2000
    1.0840   -0.9306    0.1813 C   0  0  0  0  0  0  0  0  0  0  0  0
    0.4046   -0.8919   -1.0516 O   0  0  0  0  0  0  0  0  0  0  0  0
    1.1073   -0.9767   -2.2029 C   0  0  0  0  0  0  0  0  0  0  0  0
    0.3454   -1.0517   -3.3767 C   0  0  0  0  0  0  0  0  0  0  0  0
    0.9600   -1.1589   -4.6059 C   0  0  0  0  0  0  0  0  0  0  0  0
    2.3407   -1.1793   -4.6949 C   0  0  0  0  0  0  0  0  0  0  0  0
    3.1134   -1.0750   -3.5390 C   0  0  0  0  0  0  0  0  0  0  0  0
    2.4932   -0.9793   -2.2881 C   0  0  0  0  0  0  0  0  0  0  0  0
    4.5718   -1.0655   -3.7048 C   0  0  0  0  0  0  0  0  0  0  0  0
    5.1532   -1.4807   -4.6740 O   0  0  0  0  0  0  0  0  0  0  0  0
    5.4056   -0.4705   -2.5374 C   0  0  0  0  0  0  0  0  0  0  0  0
    4.9322    0.8195   -2.1051 N   0  0  0  0  0  0  0  0  0  0  0  0
    4.8141    1.2201   -0.8083 C   0  0  0  0  0  0  0  0  0  0  0  0
    4.2858    2.4739   -0.8129 C   0  0  0  0  0  0  0  0  0  0  0  0
    4.0879    2.8258   -2.1119 N   0  0  0  0  0  0  0  0  0  0  0  0
    4.4986    1.8158   -2.8967 C   0  0  0  0  0  0  0  0  0  0  0  0
    4.2973    1.7675   -4.6340 S   0  0  0  0  0  0  0  0  0  0  0  0
    5.9386    2.3568   -5.3018 C   0  0  0  0  0  0  0  0  0  0  0  0
    6.2531    3.7590   -4.8241 C   0  0  0  0  0  0  0  0  0  0  0  0
    7.0454    1.3631   -5.0216 C   0  0  0  0  0  0  0  0  0  0  0  0
    3.5054    4.0638   -2.5533 C   0  0  0  0  0  0  0  0  0  0  0  0
    0.3076   -0.9145    0.9435 H   0  0  0  0  0  0  0  0  0  0  0  0
    1.7337   -0.0574    0.3121 H   0  0  0  0  0  0  0  0  0  0  0  0
    1.6715   -1.8475    0.2871 H   0  0  0  0  0  0  0  0  0  0  0  0
   -0.7285   -1.0413   -3.2833 H   0  0  0  0  0  0  0  0  0  0  0  0
    0.3617   -1.2335   -5.4999 H   0  0  0  0  0  0  0  0  0  0  0  0
    2.8399   -1.2637   -5.6469 H   0  0  0  0  0  0  0  0  0  0  0  0
    3.0834   -0.9579   -1.3860 H   0  0  0  0  0  0  0  0  0  0  0  0
    5.3753   -1.1605   -1.6915 H   0  0  0  0  0  0  0  0  0  0  0  0
    6.4416   -0.4031   -2.8824 H   0  0  0  0  0  0  0  0  0  0  0  0
    5.1147    0.6028    0.0142 H   0  0  0  0  0  0  0  0  0  0  0  0
    4.0412    3.1246    0.0021 H   0  0  0  0  0  0  0  0  0  0  0  0
    5.7016    2.3627   -6.3681 H   0  0  0  0  0  0  0  0  0  0  0  0
    6.4613    3.7747   -3.7551 H   0  0  0  0  0  0  0  0  0  0  0  0
    7.1410    4.1137   -5.3434 H   0  0  0  0  0  0  0  0  0  0  0  0
    5.4388    4.4451   -5.0445 H   0  0  0  0  0  0  0  0  0  0  0  0
    6.7313    0.3489   -5.2578 H   0  0  0  0  0  0  0  0  0  0  0  0
    7.9011    1.6028   -5.6506 H   0  0  0  0  0  0  0  0  0  0  0  0
    7.3678    1.4222   -3.9832 H   0  0  0  0  0  0  0  0  0  0  0  0
    4.1861    4.8943   -2.3618 H   0  0  0  0  0  0  0  0  0  0  0  0
    3.2974    4.0000   -3.6198 H   0  0  0  0  0  0  0  0  0  0  0  0
    2.5745    4.2433   -2.0164 H   0  0  0  0  0  0  0  0  0  0  0  0
  1  2  1  0  0  0  0
  2  3  1  0  0  0  0
  3  4  4  0  0  0  0
  4  5  4  0  0  0  0
  5  6  4  0  0  0  0
  6  7  4  0  0  0  0
  3  8  4  0  0  0  0
  7  8  4  0  0  0  0
  7  9  1  0  0  0  0
  9 10  2  0  0  0  0
  9 11  1  0  0  0  0
 11 12  1  0  0  0  0
 12 13  4  0  0  0  0
 13 14  2  0  0  0  0
 14 15  4  0  0  0  0
 12 16  4  0  0  0  0
 15 16  4  0  0  0  0
 16 17  1  0  0  0  0
 17 18  1  0  0  0  0
 18 19  1  0  0  0  0
 18 20  1  0  0  0  0
 15 21  1  0  0  0  0
  1 22  1  0  0  0  0
  1 23  1  0  0  0  0
  1 24  1  0  0  0  0
  4 25  1  0  0  0  0
  5 26  1  0  0  0  0
  6 27  1  0  0  0  0
  8 28  1  0  0  0  0
 11 29  1  0  0  0  0
 11 30  1  0  0  0  0
 13 31  1  0  0  0  0
 14 32  1  0  0  0  0
 18 33  1  0  0  0  0
 19 34  1  0  0  0  0
 19 35  1  0  0  0  0
 19 36  1  0  0  0  0
 20 37  1  0  0  0  0
 20 38  1  0  0  0  0
 20 39  1  0  0  0  0
 21 40  1  0  0  0  0
 21 41  1  0  0  0  0
 21 42  1  0  0  0  0
M  CHG  1   1   1
M  END
