19

O          0.80026        0.11387       -0.30790
C          0.37164       -1.01524        0.26886
O          1.13011       -1.87442        0.67060
C         -1.09060       -1.10491        0.37516
C         -1.89513       -0.15970       -0.13179
N         -3.30724       -0.17156       -0.07295
C         -4.02348       -1.11437        0.59499
C         -5.41566       -1.07953        0.62248
C         -6.09082       -0.06773       -0.04121
C         -5.36055        0.89479       -0.71852
C         -3.97122        0.82611       -0.71975
H          1.78313        0.03610       -0.29838
H         -1.41859       -2.00151        0.88224
H         -1.43389        0.68813       -0.64199
H         -3.49901       -1.90238        1.12438
H         -5.97148       -1.84234        1.16496
H         -7.17943       -0.02890       -0.02868
H         -5.87080        1.69855       -1.24600
H         -3.38444        1.57394       -1.24879
