47

C          1.82594        0.06339       -0.21123
N          1.19600       -1.05068        0.61858
C          1.36845       -0.73353        2.13338
C          0.67911        0.49734        2.66594
C          1.31022        1.75079        2.62484
C          0.67085        2.88462        3.12916
C         -0.60024        2.77935        3.68799
C         -1.23406        1.54107        3.74661
C         -0.59940        0.40571        3.24067
C         -0.30624       -1.18516        0.28907
C         -0.58930       -1.70734       -1.12653
C         -1.10721       -3.15684       -1.17253
C         -2.45002       -3.36150       -0.46224
O         -3.34961       -2.36440       -0.93859
C         -4.25112       -1.87198       -0.04010
C         -4.77777       -2.58061        1.03955
C         -5.69007       -1.96121        1.89793
C         -6.08730       -0.64407        1.66954
C         -5.58490        0.05375        0.57316
C         -4.67429       -0.56403       -0.28301
C          1.94578       -2.35515        0.36233
H          1.21687        0.96619       -0.11947
H          1.86753       -0.24991       -1.25728
H          2.84106        0.23840        0.15727
H          1.01492       -1.61905        2.67803
H          2.44793       -0.66052        2.32085
H          2.31253        1.86361        2.21676
H          1.16696        3.85288        3.09915
H         -1.09309        3.66233        4.09003
H         -2.22139        1.46119        4.19767
H         -1.11537       -0.54959        3.31822
H         -0.73448       -1.83166        1.06002
H         -0.73946       -0.18437        0.39475
H         -1.34554       -1.05496       -1.58162
H          0.27910       -1.62694       -1.78586
H         -1.23587       -3.42111       -2.22983
H         -0.36359       -3.84615       -0.75904
H         -2.85262       -4.35219       -0.70076
H         -2.29279       -3.30257        0.62058
H         -4.51940       -3.61926        1.21823
H         -6.10872       -2.51272        2.73702
H         -6.80670       -0.16857        2.33220
H         -5.91284        1.07144        0.37740
H         -4.29809       -0.02285       -1.14782
H          1.94264       -2.57295       -0.70807
H          2.97829       -2.23402        0.70433
H          1.44914       -3.15412        0.92037
