32

C          1.08968       -0.03791        0.02283
C         -0.21418       -0.03791        0.02283
C         -1.73418       -0.03791        0.02283
C         -2.22564       -1.40809        0.49356
C         -1.51105       -1.95693        1.73324
N         -2.08902       -1.53271        3.00987
C         -2.51210       -0.27499        3.41112
C         -3.18937       -0.44989        4.58478
N         -3.10609       -1.79781        4.88556
C         -2.24700       -2.37944        4.03770
C         -3.84727       -2.51902        5.91697
C         -5.03788       -3.27178        5.31394
C         -4.66336       -4.32410        4.26197
C         -3.69925       -5.33978        4.85299
C         -2.87223       -6.21102        5.35996
H          2.15658       -0.02393        0.00318
H         -2.09660        0.76638        0.66675
H         -2.10047        0.16433       -0.98953
H         -3.30965       -1.37787        0.65284
H         -2.04986       -2.11831       -0.32593
H         -1.61128       -3.05066        1.70142
H         -0.43765       -1.75848        1.77220
H         -2.32459        0.58480        2.79501
H         -3.74479        0.20598        5.23292
H         -1.86826       -3.39368        4.09233
H         -3.15506       -3.19080        6.43522
H         -4.20599       -1.79446        6.65706
H         -5.58792       -3.75552        6.13074
H         -5.72293       -2.55102        4.85121
H         -5.57076       -4.85169        3.94550
H         -4.23457       -3.87054        3.36431
H         -2.21722       -6.94569        5.77355
