15

C         -2.41167       -0.00624        0.04854
N         -0.93964        0.00986        0.03199
C         -0.27148       -1.16684        0.02890
C          1.11807       -1.19122        0.01645
C          1.81946        0.00732        0.00771
C          1.11922        1.20679        0.01159
C         -0.27106        1.18552        0.02419
H         -2.75132       -0.57360       -0.82204
H         -2.72891       -0.48554        0.97840
H         -2.79914        1.01406        0.00136
H         -0.86085       -2.07947        0.03687
H          1.65210       -2.13915        0.01397
H          2.90887        0.00679       -0.00171
H          1.65475        2.15393        0.00525
H         -0.85321        2.10260        0.02852
