 xtb: 6.7.1 (edcfbbe)
          12202406413D

 26 26  0     0  0            999 V2000
    1.2327    0.3172    0.0308 C   0  0  0  0  0  0  0  0  0  0  0  0
    0.5307   -1.0266    0.1872 C   0  0  0  0  0  0  0  0  0  0  0  0
    0.8587   -1.7313    1.5045 C   0  0  0  0  0  0  0  0  0  0  0  0
    0.3107   -1.0140    2.7454 C   0  0  0  0  0  0  0  0  0  0  0  0
   -1.1321   -0.9481    2.7124 N   0  0  0  0  0  0  0  0  0  0  0  0
   -1.8748    0.1121    2.2913 C   0  0  0  0  0  0  0  0  0  0  0  0
   -3.1825   -0.2604    2.3429 C   0  0  0  0  0  0  0  0  0  0  0  0
   -3.2220   -1.5517    2.7891 N   0  0  0  0  0  0  0  0  0  0  0  0
   -1.9621   -1.9442    3.0042 C   0  0  0  0  0  0  0  0  0  0  0  0
   -4.4060   -2.2874    2.9667 C   0  0  0  0  0  0  0  0  0  0  0  0
   -4.4627   -3.5677    3.2906 C   0  0  0  0  0  0  0  0  0  0  0  0
    0.9066    1.0403    0.7747 H   0  0  0  0  0  0  0  0  0  0  0  0
    1.0210    0.7322   -0.9504 H   0  0  0  0  0  0  0  0  0  0  0  0
    2.3088    0.1956    0.1205 H   0  0  0  0  0  0  0  0  0  0  0  0
   -0.5503   -0.8954    0.0878 H   0  0  0  0  0  0  0  0  0  0  0  0
    0.8497   -1.6798   -0.6258 H   0  0  0  0  0  0  0  0  0  0  0  0
    0.4644   -2.7492    1.4796 H   0  0  0  0  0  0  0  0  0  0  0  0
    1.9412   -1.7966    1.6150 H   0  0  0  0  0  0  0  0  0  0  0  0
    0.6171   -1.5512    3.6455 H   0  0  0  0  0  0  0  0  0  0  0  0
    0.6984    0.0036    2.7945 H   0  0  0  0  0  0  0  0  0  0  0  0
   -1.4381    1.0436    1.9943 H   0  0  0  0  0  0  0  0  0  0  0  0
   -4.0657    0.2927    2.0955 H   0  0  0  0  0  0  0  0  0  0  0  0
   -1.6593   -2.9047    3.3705 H   0  0  0  0  0  0  0  0  0  0  0  0
   -5.2939   -1.6957    2.8007 H   0  0  0  0  0  0  0  0  0  0  0  0
   -5.4162   -4.0509    3.4029 H   0  0  0  0  0  0  0  0  0  0  0  0
   -3.5958   -4.1839    3.4527 H   0  0  0  0  0  0  0  0  0  0  0  0
  1  2  1  0  0  0  0
  2  3  1  0  0  0  0
  3  4  1  0  0  0  0
  4  5  1  0  0  0  0
  5  6  4  0  0  0  0
  6  7  2  0  0  0  0
  7  8  4  0  0  0  0
  5  9  4  0  0  0  0
  8  9  4  0  0  0  0
  8 10  1  0  0  0  0
 10 11  2  0  0  0  0
  1 12  1  0  0  0  0
  1 13  1  0  0  0  0
  1 14  1  0  0  0  0
  2 15  1  0  0  0  0
  2 16  1  0  0  0  0
  3 17  1  0  0  0  0
  3 18  1  0  0  0  0
  4 19  1  0  0  0  0
  4 20  1  0  0  0  0
  6 21  1  0  0  0  0
  7 22  1  0  0  0  0
  9 23  1  0  0  0  0
 10 24  1  0  0  0  0
 11 25  1  0  0  0  0
 11 26  1  0  0  0  0
M  CHG  1   1   1
M  END
