 xtb: 6.7.1 (edcfbbe)
          12202406413D

 32 32  0     0  0            999 V2000
   -0.7647    1.1800    0.1748 C   0  0  0  0  0  0  0  0  0  0  0  0
   -1.3802    0.1540    0.1861 C   0  0  0  0  0  0  0  0  0  0  0  0
   -2.1076   -1.0995    0.2585 C   0  0  0  0  0  0  0  0  0  0  0  0
   -1.2384   -2.2328    0.8184 C   0  0  0  0  0  0  0  0  0  0  0  0
   -0.5698   -1.8644    2.1481 C   0  0  0  0  0  0  0  0  0  0  0  0
   -1.5447   -1.5790    3.1753 N   0  0  0  0  0  0  0  0  0  0  0  0
   -2.1105   -0.3633    3.4141 C   0  0  0  0  0  0  0  0  0  0  0  0
   -3.0115   -0.5284    4.4226 C   0  0  0  0  0  0  0  0  0  0  0  0
   -2.9784   -1.8404    4.7848 N   0  0  0  0  0  0  0  0  0  0  0  0
   -2.0889   -2.4581    4.0120 C   0  0  0  0  0  0  0  0  0  0  0  0
   -3.8111   -2.4734    5.7810 C   0  0  0  0  0  0  0  0  0  0  0  0
   -5.1331   -2.9647    5.1793 C   0  0  0  0  0  0  0  0  0  0  0  0
   -4.9269   -3.9737    4.0425 C   0  0  0  0  0  0  0  0  0  0  0  0
   -4.0383   -5.0550    4.4252 C   0  0  0  0  0  0  0  0  0  0  0  0
   -3.2789   -5.9213    4.7496 C   0  0  0  0  0  0  0  0  0  0  0  0
   -0.2344    2.0832    0.1107 H   0  0  0  0  0  0  0  0  0  0  0  0
   -3.0035   -0.9580    0.8719 H   0  0  0  0  0  0  0  0  0  0  0  0
   -2.4372   -1.3692   -0.7473 H   0  0  0  0  0  0  0  0  0  0  0  0
   -1.8463   -3.1313    0.9421 H   0  0  0  0  0  0  0  0  0  0  0  0
   -0.4420   -2.4583    0.1091 H   0  0  0  0  0  0  0  0  0  0  0  0
    0.0627   -2.6871    2.4862 H   0  0  0  0  0  0  0  0  0  0  0  0
    0.0431   -0.9719    2.0039 H   0  0  0  0  0  0  0  0  0  0  0  0
   -1.8359    0.5115    2.8587 H   0  0  0  0  0  0  0  0  0  0  0  0
   -3.6514    0.1859    4.8990 H   0  0  0  0  0  0  0  0  0  0  0  0
   -1.8564   -3.5054    4.0667 H   0  0  0  0  0  0  0  0  0  0  0  0
   -3.2658   -3.3246    6.1943 H   0  0  0  0  0  0  0  0  0  0  0  0
   -4.0093   -1.7523    6.5758 H   0  0  0  0  0  0  0  0  0  0  0  0
   -5.6979   -3.4363    5.9835 H   0  0  0  0  0  0  0  0  0  0  0  0
   -5.7136   -2.1186    4.8078 H   0  0  0  0  0  0  0  0  0  0  0  0
   -5.8942   -4.4006    3.7684 H   0  0  0  0  0  0  0  0  0  0  0  0
   -4.5257   -3.4754    3.1534 H   0  0  0  0  0  0  0  0  0  0  0  0
   -2.6494   -6.7119    5.0324 H   0  0  0  0  0  0  0  0  0  0  0  0
  1  2  3  0  0  0  0
  2  3  1  0  0  0  0
  3  4  1  0  0  0  0
  4  5  1  0  0  0  0
  5  6  1  0  0  0  0
  6  7  4  0  0  0  0
  7  8  2  0  0  0  0
  8  9  4  0  0  0  0
  6 10  4  0  0  0  0
  9 10  4  0  0  0  0
  9 11  1  0  0  0  0
 11 12  1  0  0  0  0
 12 13  1  0  0  0  0
 13 14  1  0  0  0  0
 14 15  3  0  0  0  0
  1 16  1  0  0  0  0
  3 17  1  0  0  0  0
  3 18  1  0  0  0  0
  4 19  1  0  0  0  0
  4 20  1  0  0  0  0
  5 21  1  0  0  0  0
  5 22  1  0  0  0  0
  7 23  1  0  0  0  0
  8 24  1  0  0  0  0
 10 25  1  0  0  0  0
 11 26  1  0  0  0  0
 11 27  1  0  0  0  0
 12 28  1  0  0  0  0
 12 29  1  0  0  0  0
 13 30  1  0  0  0  0
 13 31  1  0  0  0  0
 15 32  1  0  0  0  0
M  CHG  1   1   1
M  END
