49

O          4.83420       -1.56053       -0.15520
C          5.02881       -0.38102        0.13562
C          5.17373        0.62070       -0.95099
C          5.76836        0.21393       -2.15141
C          5.91113        1.11996       -3.20281
C          5.44782        2.42715       -3.06450
C          4.83968        2.83127       -1.87704
C          4.70149        1.93097       -0.81846
C          5.09338        0.07797        1.58345
N          3.76020        0.41651        2.11053
C          3.40923        1.60894        2.74998
C          4.17669        2.70157        3.15153
C          3.47916        3.76183        3.74539
C          2.08322        3.72384        3.92075
C          1.31859        2.62200        3.51319
C          2.02225        1.57055        2.93014
N          1.61986        0.35669        2.40055
C          2.69160       -0.42122        2.12183
C          2.68964       -1.89766        1.89918
N          0.23026       -0.08424        2.33925
C         -0.19842       -0.54789        1.00907
C         -0.78213       -1.93785        1.04925
C         -1.80895       -2.26847        1.94772
C         -2.34995       -3.55530        1.96657
C         -1.88009       -4.52377        1.08312
C         -0.87548       -4.20523        0.17315
C         -0.33444       -2.91860        0.15019
H          6.12401       -0.80756       -2.27780
H          6.37797        0.80519       -4.13404
H          5.55274        3.12938       -3.88947
H          4.46454        3.84867       -1.78562
H          4.19540        2.27282        0.07611
H          5.51605       -0.72641        2.19513
H          5.77384        0.92989        1.66761
H          5.25157        2.73465        3.02352
H          4.03082        4.64026        4.08404
H          1.58602        4.57449        4.38939
H          0.24572        2.59305        3.65193
H          1.90723       -2.32804        2.52538
H          2.50068       -2.07134        0.84125
H          3.65994       -2.28772        2.20722
H         -0.41091        0.64487        2.65342
H         -0.96105        0.13758        0.61881
H          0.63191       -0.50064        0.29455
H         -2.20334       -1.53042        2.64218
H         -3.14379       -3.80323        2.66755
H         -2.30446       -5.52504        1.09713
H         -0.51921       -4.95982       -0.52466
H          0.43847       -2.69490       -0.58255
