62

C          3.51447       -1.07130        0.57493
O          2.67535       -0.98169       -0.57134
C          3.23680       -0.12305       -1.57387
C          2.35424       -0.18107       -2.82647
O          1.16012        0.61725       -2.77646
C          0.35617        0.39552       -1.61802
C         -1.05222        0.98555       -1.82277
N         -2.04631        0.06060       -2.59840
C         -2.19601       -1.33754       -1.87611
C         -2.41223       -1.24887       -0.34995
O         -3.68178       -0.67757       -0.04739
C         -3.74151        0.09341        1.16139
C         -3.19626       -0.59092        2.41870
O         -1.77351       -0.41934        2.45328
C         -1.22157       -0.83639        3.69704
C         -3.50213        0.68287       -2.72803
C         -3.65354        2.13885       -2.26038
O         -3.12504        3.02325       -3.24215
C         -2.65714        4.29575       -2.77549
C         -3.49736        4.99533       -1.70195
O         -3.14970        4.45019       -0.42130
C         -3.73474        5.18843        0.64474
C         -1.50673       -0.24264       -4.02170
C         -1.31579        0.97927       -4.90600
H          3.03914       -1.74425        1.29393
H          3.63248       -0.08797        1.03917
H          4.49078       -1.48419        0.30393
H          3.29421        0.89878       -1.18373
H          4.24057       -0.48306       -1.82372
H          2.92604        0.19465       -3.68131
H          2.05870       -1.21297       -3.04569
H          0.31763       -0.66662       -1.37274
H          0.82080        0.93064       -0.78190
H         -1.50037        1.17919       -0.84512
H         -0.98341        1.92380       -2.36996
H         -3.03469       -1.84474       -2.36506
H         -1.28389       -1.90578       -2.08763
H         -2.40372       -2.26480        0.06130
H         -1.59261       -0.70214        0.11438
H         -3.22549        1.04268        0.98157
H         -4.80308        0.31563        1.31327
H         -3.63088       -0.11032        3.30209
H         -3.43172       -1.66018        2.42161
H         -1.62944       -0.23639        4.51623
H         -1.42089       -1.89814        3.86663
H         -0.13981       -0.68165        3.65895
H         -3.79899        0.58374       -3.77706
H         -4.18586        0.04992       -2.16080
H         -4.72238        2.36181       -2.16650
H         -3.20334        2.27568       -1.27895
H         -1.62951        4.16094       -2.42179
H         -2.61674        4.93525       -3.66360
H         -3.25883        6.06472       -1.70466
H         -4.56841        4.85340       -1.87863
H         -4.82555        5.16194        0.57344
H         -3.43170        4.72331        1.58683
H         -3.37626        6.22206        0.63624
H         -0.56426       -0.78688       -3.90946
H         -2.22329       -0.92979       -4.48784
H         -0.63478        1.71678       -4.47635
H         -0.88259        0.66594       -5.86228
H         -2.26269        1.47245       -5.13826
