50

Br        -1.28271       -0.09510       -0.41501
C          0.59036       -0.13177       -0.17202
C          1.21012        0.86231        0.58172
C          2.59559        0.83564        0.76300
C          3.37049       -0.18527        0.18787
C          2.72868       -1.17621       -0.57259
C          1.34290       -1.15201       -0.74786
C          4.87090       -0.19744        0.34319
N          5.45620        0.41969       -0.84483
C          5.42797        1.73723       -1.07929
N          5.94396        1.98256       -2.29104
C          6.39770        0.78330       -2.83890
C          6.09699       -0.21796       -1.90130
C          6.43126       -1.55373       -2.11081
C          7.09355       -1.84366       -3.31110
C          7.39113       -0.84128       -4.25372
C          7.04380        0.49978       -4.04013
C          6.05919        3.31972       -2.88269
C          4.75152        3.82264       -3.49935
C          3.60789        4.12878       -2.52208
Si         3.70357        5.72061       -1.46496
C          3.70562        7.22127       -2.58120
C          2.19302        5.75450       -0.34458
C          5.23427        5.73833       -0.38471
H          0.61977        1.65564        1.03568
H          3.05355        1.61679        1.36644
H          3.29791       -1.98029       -1.03497
H          0.85916       -1.93159       -1.33272
H          5.18198        0.37670        1.22356
H          5.24183       -1.21834        0.47514
H          5.03341        2.48163       -0.40005
H          6.20407       -2.32610       -1.38701
H          7.38859       -2.87238       -3.52261
H          7.90841       -1.11772       -5.17357
H          7.27369        1.26885       -4.76670
H          6.43690        3.99436       -2.11258
H          6.82877        3.28866       -3.66172
H          4.96847        4.71659       -4.09694
H          4.39462        3.05811       -4.20169
H          2.69137        4.24111       -3.11602
H          3.42494        3.27927       -1.85850
H          2.80159        7.24958       -3.19645
H          3.74411        8.14133       -1.99008
H          4.57292        7.21021       -3.24783
H          2.16973        4.86609        0.29378
H          2.21250        6.63903        0.29902
H          1.27338        5.77835       -0.93604
H          5.34759        4.79492        0.15581
H          6.13505        5.91116       -0.97998
H          5.16893        6.54297        0.35417
