 xtb: 6.7.1 (edcfbbe)
          12202406423D

 70 70  0     0  0            999 V2000
    1.4728    0.2593    0.8037 C   0  0  0  0  0  0  0  0  0  0  0  0
    0.1992    0.1219   -0.0223 C   0  0  0  0  0  0  0  0  0  0  0  0
    0.2531   -1.0266   -1.0313 C   0  0  0  0  0  0  0  0  0  0  0  0
    0.4393   -2.4148   -0.4162 C   0  0  0  0  0  0  0  0  0  0  0  0
   -0.6528   -2.8323    0.5704 C   0  0  0  0  0  0  0  0  0  0  0  0
   -2.0744   -2.8622    0.0015 C   0  0  0  0  0  0  0  0  0  0  0  0
   -2.2558   -3.7498   -1.2306 C   0  0  0  0  0  0  0  0  0  0  0  0
   -2.0062   -5.2456   -0.9852 C   0  0  0  0  0  0  0  0  0  0  0  0
   -3.2511   -5.9223   -0.4148 C   0  0  0  0  0  0  0  0  0  0  0  0
   -3.0626   -7.3390    0.0325 N   0  0  0  0  0  0  0  0  0  0  0  0
   -2.4365   -7.3768    1.4057 C   0  0  0  0  0  0  0  0  0  0  0  0
   -3.4209   -7.1233    2.3400 O   0  0  0  0  0  0  0  0  0  0  0  0
   -3.0820   -6.4123    3.5550 C   0  0  0  0  0  0  0  0  0  0  0  0
   -2.8344   -4.9393    3.2206 C   0  0  0  0  0  0  0  0  0  0  0  0
   -2.5937   -4.1043    4.4750 C   0  0  0  0  0  0  0  0  0  0  0  0
   -2.4189   -2.6292    4.1323 C   0  0  0  0  0  0  0  0  0  0  0  0
   -1.3629   -4.6755    5.1673 C   0  0  0  0  0  0  0  0  0  0  0  0
   -1.5999   -6.1287    5.5578 C   0  0  0  0  0  0  0  0  0  0  0  0
   -1.9563   -7.0598    4.3841 C   0  0  0  0  0  0  0  0  0  0  0  0
   -2.3543   -8.4413    4.9638 C   0  0  0  0  0  0  0  0  0  0  0  0
   -2.7070   -9.4909    3.9091 C   0  0  0  0  0  0  0  0  0  0  0  0
   -1.2401   -9.0173    5.8429 C   0  0  0  0  0  0  0  0  0  0  0  0
   -4.3847   -7.9959    0.1006 C   0  0  0  0  0  0  0  0  0  0  0  0
   -2.2174   -8.0969   -0.9069 C   0  0  0  0  0  0  0  0  0  0  0  0
    1.6108   -0.5920    1.4660 H   0  0  0  0  0  0  0  0  0  0  0  0
    1.4270    1.1563    1.4161 H   0  0  0  0  0  0  0  0  0  0  0  0
    2.3413    0.3347    0.1534 H   0  0  0  0  0  0  0  0  0  0  0  0
   -0.6566   -0.0030    0.6442 H   0  0  0  0  0  0  0  0  0  0  0  0
    0.0410    1.0480   -0.5788 H   0  0  0  0  0  0  0  0  0  0  0  0
   -0.6600   -1.0107   -1.6302 H   0  0  0  0  0  0  0  0  0  0  0  0
    1.0886   -0.8495   -1.7124 H   0  0  0  0  0  0  0  0  0  0  0  0
    0.5041   -3.1466   -1.2252 H   0  0  0  0  0  0  0  0  0  0  0  0
    1.3949   -2.4425    0.1100 H   0  0  0  0  0  0  0  0  0  0  0  0
   -0.3876   -3.8152    0.9730 H   0  0  0  0  0  0  0  0  0  0  0  0
   -0.6473   -2.1386    1.4117 H   0  0  0  0  0  0  0  0  0  0  0  0
   -2.7591   -3.1761    0.7924 H   0  0  0  0  0  0  0  0  0  0  0  0
   -2.3574   -1.8473   -0.2771 H   0  0  0  0  0  0  0  0  0  0  0  0
   -3.2668   -3.6154   -1.6199 H   0  0  0  0  0  0  0  0  0  0  0  0
   -1.5681   -3.4117   -2.0044 H   0  0  0  0  0  0  0  0  0  0  0  0
   -1.7435   -5.7034   -1.9391 H   0  0  0  0  0  0  0  0  0  0  0  0
   -1.1541   -5.3526   -0.3143 H   0  0  0  0  0  0  0  0  0  0  0  0
   -3.6211   -5.3681    0.4498 H   0  0  0  0  0  0  0  0  0  0  0  0
   -4.0287   -5.9166   -1.1813 H   0  0  0  0  0  0  0  0  0  0  0  0
   -2.0214   -8.3874    1.5342 H   0  0  0  0  0  0  0  0  0  0  0  0
   -1.6204   -6.6461    1.4332 H   0  0  0  0  0  0  0  0  0  0  0  0
   -4.0160   -6.4903    4.1215 H   0  0  0  0  0  0  0  0  0  0  0  0
   -3.7089   -4.5610    2.6840 H   0  0  0  0  0  0  0  0  0  0  0  0
   -1.9592   -4.8382    2.5738 H   0  0  0  0  0  0  0  0  0  0  0  0
   -3.4570   -4.2104    5.1397 H   0  0  0  0  0  0  0  0  0  0  0  0
   -3.2922   -2.2461    3.6094 H   0  0  0  0  0  0  0  0  0  0  0  0
   -2.2844   -2.0477    5.0400 H   0  0  0  0  0  0  0  0  0  0  0  0
   -1.5447   -2.4832    3.5026 H   0  0  0  0  0  0  0  0  0  0  0  0
   -0.5004   -4.5986    4.5006 H   0  0  0  0  0  0  0  0  0  0  0  0
   -1.1377   -4.1004    6.0658 H   0  0  0  0  0  0  0  0  0  0  0  0
   -2.4130   -6.1661    6.2857 H   0  0  0  0  0  0  0  0  0  0  0  0
   -0.6995   -6.5036    6.0404 H   0  0  0  0  0  0  0  0  0  0  0  0
   -1.0704   -7.1792    3.7485 H   0  0  0  0  0  0  0  0  0  0  0  0
   -3.2417   -8.2873    5.5872 H   0  0  0  0  0  0  0  0  0  0  0  0
   -1.8412   -9.7122    3.2859 H   0  0  0  0  0  0  0  0  0  0  0  0
   -2.9964  -10.4131    4.4067 H   0  0  0  0  0  0  0  0  0  0  0  0
   -3.5412   -9.1743    3.2908 H   0  0  0  0  0  0  0  0  0  0  0  0
   -1.1273   -8.4669    6.7708 H   0  0  0  0  0  0  0  0  0  0  0  0
   -1.4740  -10.0467    6.1017 H   0  0  0  0  0  0  0  0  0  0  0  0
   -0.2897   -9.0104    5.3129 H   0  0  0  0  0  0  0  0  0  0  0  0
   -4.8105   -8.0706   -0.8974 H   0  0  0  0  0  0  0  0  0  0  0  0
   -4.2783   -8.9931    0.5230 H   0  0  0  0  0  0  0  0  0  0  0  0
   -5.0483   -7.4224    0.7434 H   0  0  0  0  0  0  0  0  0  0  0  0
   -2.6025   -7.9855   -1.9188 H   0  0  0  0  0  0  0  0  0  0  0  0
   -1.1896   -7.7432   -0.8744 H   0  0  0  0  0  0  0  0  0  0  0  0
   -2.2313   -9.1538   -0.6452 H   0  0  0  0  0  0  0  0  0  0  0  0
  1  2  1  0  0  0  0
  2  3  1  0  0  0  0
  3  4  1  0  0  0  0
  4  5  1  0  0  0  0
  5  6  1  0  0  0  0
  6  7  1  0  0  0  0
  7  8  1  0  0  0  0
  8  9  1  0  0  0  0
  9 10  1  0  0  0  0
 10 11  1  0  0  0  0
 11 12  1  0  0  0  0
 12 13  1  0  0  0  0
 13 14  1  0  0  0  0
 14 15  1  0  0  0  0
 15 16  1  0  0  0  0
 15 17  1  0  0  0  0
 17 18  1  0  0  0  0
 13 19  1  0  0  0  0
 18 19  1  0  0  0  0
 19 20  1  0  0  0  0
 20 21  1  0  0  0  0
 20 22  1  0  0  0  0
 10 23  1  0  0  0  0
 10 24  1  0  0  0  0
  1 25  1  0  0  0  0
  1 26  1  0  0  0  0
  1 27  1  0  0  0  0
  2 28  1  0  0  0  0
  2 29  1  0  0  0  0
  3 30  1  0  0  0  0
  3 31  1  0  0  0  0
  4 32  1  0  0  0  0
  4 33  1  0  0  0  0
  5 34  1  0  0  0  0
  5 35  1  0  0  0  0
  6 36  1  0  0  0  0
  6 37  1  0  0  0  0
  7 38  1  0  0  0  0
  7 39  1  0  0  0  0
  8 40  1  0  0  0  0
  8 41  1  0  0  0  0
  9 42  1  0  0  0  0
  9 43  1  0  0  0  0
 11 44  1  0  0  0  0
 11 45  1  0  0  0  0
 13 46  1  0  0  0  0
 14 47  1  0  0  0  0
 14 48  1  0  0  0  0
 15 49  1  0  0  0  0
 16 50  1  0  0  0  0
 16 51  1  0  0  0  0
 16 52  1  0  0  0  0
 17 53  1  0  0  0  0
 17 54  1  0  0  0  0
 18 55  1  0  0  0  0
 18 56  1  0  0  0  0
 19 57  1  0  0  0  0
 20 58  1  0  0  0  0
 21 59  1  0  0  0  0
 21 60  1  0  0  0  0
 21 61  1  0  0  0  0
 22 62  1  0  0  0  0
 22 63  1  0  0  0  0
 22 64  1  0  0  0  0
 23 65  1  0  0  0  0
 23 66  1  0  0  0  0
 23 67  1  0  0  0  0
 24 68  1  0  0  0  0
 24 69  1  0  0  0  0
 24 70  1  0  0  0  0
M  CHG  1   1   1
M  END
