22

N         -0.93674        0.42474       -0.00153
C          0.10036        1.29745       -0.10231
O          0.36474        2.09105        0.79068
C          0.89882        1.19676       -1.37440
C          2.08320        2.15396       -1.35308
N          3.15508        1.66512       -0.44241
C          3.32592        2.24560        0.77072
C          4.32397        1.80615        1.63271
C          5.15705        0.76779        1.23938
C          4.98132        0.19156       -0.01127
C          3.97210        0.66187       -0.84311
H         -1.52724        0.48002        0.82268
H         -1.26324       -0.16465       -0.75733
H          1.22466        0.16055       -1.51187
H          0.23536        1.46450       -2.20461
H          2.53700        2.22501       -2.34894
H          1.80345        3.16890       -1.04937
H          2.65472        3.05463        1.04773
H          4.44683        2.27108        2.60865
H          5.94126        0.41074        1.90565
H          5.62883       -0.62027       -0.33553
H          3.80626        0.24038       -1.83026
