55

C          1.62138        0.55817       -0.06737
C          1.09084        0.97567       -1.43053
C          1.02463       -0.16602       -2.45003
C          0.18297       -1.38224       -2.04728
C         -1.25051       -1.08116       -1.60586
C         -2.15324       -0.44970       -2.66900
C         -2.53395       -1.33953       -3.85963
C         -3.12311       -2.69531       -3.45559
C         -4.18645       -3.25785       -4.40939
C         -3.88896       -3.20667       -5.90950
C         -2.60818       -3.89345       -6.36930
O         -2.75142       -5.30390       -6.50459
C         -2.53050       -6.05851       -5.33247
N         -1.44240       -7.09679       -5.50231
C         -0.08158       -6.43870       -5.81997
C          0.47706       -5.51675       -4.72053
O          0.76386       -6.24503       -3.53252
C         -1.36780       -7.96500       -4.25467
C         -1.81079       -7.99106       -6.68463
H          0.94454       -0.14119        0.43191
H          1.72339        1.43588        0.57955
H          2.60467        0.08593       -0.15443
H          0.10381        1.43603       -1.31207
H          1.74681        1.75746       -1.83282
H          0.64827        0.23603       -3.39803
H          2.04606       -0.51219       -2.65435
H          0.16812       -2.09120       -2.88369
H          0.69019       -1.90297       -1.22534
H         -1.70175       -2.01046       -1.24026
H         -1.22867       -0.41273       -0.73728
H         -3.08289       -0.14004       -2.17418
H         -1.69754        0.47180       -3.04944
H         -3.25863       -0.77894       -4.46154
H         -1.65538       -1.49914       -4.49588
H         -2.30486       -3.41610       -3.34607
H         -3.59424       -2.61879       -2.46775
H         -4.41233       -4.28867       -4.11234
H         -5.11458       -2.69501       -4.24217
H         -4.74216       -3.65452       -6.43475
H         -3.84900       -2.15650       -6.22077
H         -2.38698       -3.52936       -7.37919
H         -1.74123       -3.63599       -5.75612
H         -2.27659       -5.44461       -4.46445
H         -3.45589       -6.59918       -5.09960
H          0.61952       -7.26317       -5.99657
H         -0.20422       -5.87580       -6.75205
H          1.41280       -5.07186       -5.07512
H         -0.20600       -4.70277       -4.47103
H          1.27095       -5.65736       -2.94264
H         -2.26313       -8.59427       -4.21910
H         -0.47396       -8.59239       -4.31679
H         -1.35232       -7.32639       -3.36872
H         -2.79968       -8.42370       -6.50453
H         -1.81686       -7.39125       -7.59962
H         -1.05991       -8.78362       -6.76249
