 xtb: 6.7.1 (edcfbbe)
          12202406413D

 39 38  0     0  0            999 V2000
    0.5862    0.0643    0.2158 C   0  0  0  0  0  0  0  0  0  0  0  0
    0.3253    0.3500   -1.2583 C   0  0  0  0  0  0  0  0  0  0  0  0
    1.1649   -0.5196   -2.1970 C   0  0  0  0  0  0  0  0  0  0  0  0
    0.9369   -2.0279   -2.0661 C   0  0  0  0  0  0  0  0  0  0  0  0
   -0.5188   -2.5055   -2.2304 C   0  0  0  0  0  0  0  0  0  0  0  0
   -1.2146   -2.0333   -3.5355 C   0  0  0  0  0  0  0  0  0  0  0  0
   -1.1281   -2.9124   -4.7390 N   0  0  0  0  0  0  0  0  0  0  0  0
   -2.0658   -4.0462   -4.6134 C   0  0  0  0  0  0  0  0  0  0  0  0
   -1.5123   -2.1137   -5.9193 C   0  0  0  0  0  0  0  0  0  0  0  0
    0.2338   -3.4346   -4.9398 C   0  0  0  0  0  0  0  0  0  0  0  0
   -0.6183   -3.9142   -2.1420 O   0  0  0  0  0  0  0  0  0  0  0  0
   -0.5600   -4.4666   -0.8308 C   0  0  0  0  0  0  0  0  0  0  0  0
   -0.9633   -5.9290   -0.9166 C   0  0  0  0  0  0  0  0  0  0  0  0
    0.2573   -0.9336    0.4958 H   0  0  0  0  0  0  0  0  0  0  0  0
    0.0498    0.7789    0.8338 H   0  0  0  0  0  0  0  0  0  0  0  0
    1.6467    0.1534    0.4373 H   0  0  0  0  0  0  0  0  0  0  0  0
   -0.7387    0.2270   -1.4744 H   0  0  0  0  0  0  0  0  0  0  0  0
    0.5760    1.3929   -1.4602 H   0  0  0  0  0  0  0  0  0  0  0  0
    0.9993   -0.1934   -3.2278 H   0  0  0  0  0  0  0  0  0  0  0  0
    2.2189   -0.3364   -1.9804 H   0  0  0  0  0  0  0  0  0  0  0  0
    1.5857   -2.5481   -2.7709 H   0  0  0  0  0  0  0  0  0  0  0  0
    1.2540   -2.3308   -1.0678 H   0  0  0  0  0  0  0  0  0  0  0  0
   -1.1032   -2.0582   -1.4107 H   0  0  0  0  0  0  0  0  0  0  0  0
   -2.2779   -1.8968   -3.3297 H   0  0  0  0  0  0  0  0  0  0  0  0
   -0.7917   -1.0615   -3.7914 H   0  0  0  0  0  0  0  0  0  0  0  0
   -3.0899   -3.6822   -4.5597 H   0  0  0  0  0  0  0  0  0  0  0  0
   -1.9717   -4.7031   -5.4755 H   0  0  0  0  0  0  0  0  0  0  0  0
   -1.8331   -4.6011   -3.7069 H   0  0  0  0  0  0  0  0  0  0  0  0
   -0.7882   -1.3198   -6.0956 H   0  0  0  0  0  0  0  0  0  0  0  0
   -1.5499   -2.7503   -6.8018 H   0  0  0  0  0  0  0  0  0  0  0  0
   -2.4938   -1.6659   -5.7722 H   0  0  0  0  0  0  0  0  0  0  0  0
    0.9432   -2.6124   -5.0063 H   0  0  0  0  0  0  0  0  0  0  0  0
    0.4953   -4.0823   -4.1056 H   0  0  0  0  0  0  0  0  0  0  0  0
    0.2768   -4.0096   -5.8632 H   0  0  0  0  0  0  0  0  0  0  0  0
    0.4568   -4.3798   -0.4303 H   0  0  0  0  0  0  0  0  0  0  0  0
   -1.2444   -3.9153   -0.1726 H   0  0  0  0  0  0  0  0  0  0  0  0
   -0.2981   -6.4642   -1.5893 H   0  0  0  0  0  0  0  0  0  0  0  0
   -0.8995   -6.3793    0.0688 H   0  0  0  0  0  0  0  0  0  0  0  0
   -1.9840   -6.0243   -1.2789 H   0  0  0  0  0  0  0  0  0  0  0  0
  1  2  1  0  0  0  0
  2  3  1  0  0  0  0
  3  4  1  0  0  0  0
  4  5  1  0  0  0  0
  5  6  1  0  0  0  0
  6  7  1  0  0  0  0
  7  8  1  0  0  0  0
  7  9  1  0  0  0  0
  7 10  1  0  0  0  0
  5 11  1  0  0  0  0
 11 12  1  0  0  0  0
 12 13  1  0  0  0  0
  1 14  1  0  0  0  0
  1 15  1  0  0  0  0
  1 16  1  0  0  0  0
  2 17  1  0  0  0  0
  2 18  1  0  0  0  0
  3 19  1  0  0  0  0
  3 20  1  0  0  0  0
  4 21  1  0  0  0  0
  4 22  1  0  0  0  0
  5 23  1  0  0  0  0
  6 24  1  0  0  0  0
  6 25  1  0  0  0  0
  8 26  1  0  0  0  0
  8 27  1  0  0  0  0
  8 28  1  0  0  0  0
  9 29  1  0  0  0  0
  9 30  1  0  0  0  0
  9 31  1  0  0  0  0
 10 32  1  0  0  0  0
 10 33  1  0  0  0  0
 10 34  1  0  0  0  0
 12 35  1  0  0  0  0
 12 36  1  0  0  0  0
 13 37  1  0  0  0  0
 13 38  1  0  0  0  0
 13 39  1  0  0  0  0
M  CHG  1   1   1
M  END
