39

C          0.68557        0.13056        0.13817
C          0.45116        0.32760       -1.35151
C          1.21700       -0.66825       -2.22557
C          0.86637       -2.14394       -2.00822
C         -0.61860       -2.52960       -2.16821
C         -1.30687       -2.05303       -3.48049
N         -1.09706       -2.88329       -4.77683
C         -1.84908       -4.21498       -4.70790
C         -1.68449       -2.07433       -5.93618
C          0.36174       -3.16152       -5.07611
O         -0.78439       -3.94654       -2.03673
C         -0.78444       -4.41349       -0.68535
C         -0.97755       -5.91715       -0.70888
H          0.28119       -0.82471        0.48544
H          0.19032        0.92584        0.70448
H          1.75376        0.16150        0.37506
H         -0.62242        0.27796       -1.56217
H          0.77263        1.34063       -1.62238
H          1.06611       -0.40438       -3.27828
H          2.29181       -0.54258       -2.04153
H          1.49134       -2.75487       -2.66634
H          1.19972       -2.42880       -1.00323
H         -1.17467       -2.04519       -1.35437
H         -2.39231       -2.05973       -3.31709
H         -1.02933       -1.02053       -3.71402
H         -2.86499       -4.02677       -4.35051
H         -1.87943       -4.64148       -5.71597
H         -1.31913       -4.90845       -4.05398
H         -1.13331       -1.13226       -6.01413
H         -1.57581       -2.65201       -6.85923
H         -2.74155       -1.88703       -5.72542
H          0.91007       -2.21667       -5.04385
H          0.74704       -3.87500       -4.34488
H          0.43227       -3.60257       -6.07571
H          0.16364       -4.17468       -0.19567
H         -1.60550       -3.94248       -0.13444
H         -0.16838       -6.39972       -1.26716
H         -0.99781       -6.32428        0.30584
H         -1.91297       -6.17869       -1.21452
