 xtb: 6.7.1 (edcfbbe)
          12202406413D

 47 50  0     0  0            999 V2000
    0.8070   -0.1042    0.2328 C   0  0  0  0  0  0  0  0  0  0  0  0
    0.2531    1.2956    0.4740 C   0  0  0  0  0  0  0  0  0  0  0  0
    0.9726    2.3311   -0.3900 C   0  0  0  0  0  0  0  0  0  0  0  0
    2.3767    2.6838    0.0985 C   0  0  0  0  0  0  0  0  0  0  0  0
    3.1318    2.0287    0.7420 O   0  0  0  0  0  0  0  0  0  0  0  0
    2.6593    3.9619   -0.2751 O   0  0  0  0  0  0  0  0  0  0  0  0
    1.5737    4.4978   -1.0145 C   0  0  0  0  0  0  0  0  0  0  0  0
    0.3486    3.7311   -0.5064 C   0  0  0  0  0  0  0  0  0  0  0  0
   -0.1096    4.2289    0.8841 C   0  0  0  0  0  0  0  0  0  0  0  0
   -0.2674    5.7031    0.9573 C   0  0  0  0  0  0  0  0  0  0  0  0
   -1.2797    6.5058    0.5081 C   0  0  0  0  0  0  0  0  0  0  0  0
   -0.9508    7.7966    0.7941 N   0  0  0  0  0  0  0  0  0  0  0  0
    0.2271    7.7893    1.4126 C   0  0  0  0  0  0  0  0  0  0  0  0
    0.6676    6.5381    1.5183 N   0  0  0  0  0  0  0  0  0  0  0  0
    1.8998    6.1392    2.1499 C   0  0  0  0  0  0  0  0  0  0  0  0
   -1.8019    8.9438    0.5855 C   0  0  0  0  0  0  0  0  0  0  0  0
   -2.8383    9.0672    1.6858 C   0  0  0  0  0  0  0  0  0  0  0  0
   -4.1126    9.5518    1.4074 C   0  0  0  0  0  0  0  0  0  0  0  0
   -5.0520    9.6904    2.4172 C   0  0  0  0  0  0  0  0  0  0  0  0
   -4.7413    9.3329    3.7184 C   0  0  0  0  0  0  0  0  0  0  0  0
   -3.4724    8.8426    3.9858 C   0  0  0  0  0  0  0  0  0  0  0  0
   -2.5193    8.7169    2.9863 C   0  0  0  0  0  0  0  0  0  0  0  0
   -3.1089    8.4335    5.3306 N   0  0  0  0  0  0  0  0  0  0  0  0
   -3.9037    8.6388    6.2111 O   0  0  0  0  0  0  0  0  0  0  0  0
   -2.0263    7.9017    5.4602 O   0  0  0  0  0  0  0  0  0  0  0  0
    0.6632   -0.4041   -0.8025 H   0  0  0  0  0  0  0  0  0  0  0  0
    0.2969   -0.8207    0.8701 H   0  0  0  0  0  0  0  0  0  0  0  0
    1.8680   -0.1327    0.4623 H   0  0  0  0  0  0  0  0  0  0  0  0
   -0.8116    1.3136    0.2295 H   0  0  0  0  0  0  0  0  0  0  0  0
    0.3677    1.5406    1.5307 H   0  0  0  0  0  0  0  0  0  0  0  0
    1.0885    1.9167   -1.3992 H   0  0  0  0  0  0  0  0  0  0  0  0
    1.7320    4.3088   -2.0825 H   0  0  0  0  0  0  0  0  0  0  0  0
    1.5494    5.5767   -0.8556 H   0  0  0  0  0  0  0  0  0  0  0  0
   -0.4774    3.7787   -1.2153 H   0  0  0  0  0  0  0  0  0  0  0  0
   -1.0629    3.7557    1.1211 H   0  0  0  0  0  0  0  0  0  0  0  0
    0.6198    3.9118    1.6296 H   0  0  0  0  0  0  0  0  0  0  0  0
   -2.1947    6.2426    0.0187 H   0  0  0  0  0  0  0  0  0  0  0  0
    0.7483    8.6593    1.7633 H   0  0  0  0  0  0  0  0  0  0  0  0
    2.4836    7.0234    2.3945 H   0  0  0  0  0  0  0  0  0  0  0  0
    1.6899    5.5941    3.0718 H   0  0  0  0  0  0  0  0  0  0  0  0
    2.4866    5.4988    1.4892 H   0  0  0  0  0  0  0  0  0  0  0  0
   -1.1779    9.8425    0.5655 H   0  0  0  0  0  0  0  0  0  0  0  0
   -2.2979    8.8453   -0.3828 H   0  0  0  0  0  0  0  0  0  0  0  0
   -4.3709    9.8297    0.3969 H   0  0  0  0  0  0  0  0  0  0  0  0
   -6.0328   10.0733    2.1855 H   0  0  0  0  0  0  0  0  0  0  0  0
   -5.4577    9.4231    4.5202 H   0  0  0  0  0  0  0  0  0  0  0  0
   -1.5435    8.3445    3.2618 H   0  0  0  0  0  0  0  0  0  0  0  0
  1  2  1  0  0  0  0
  2  3  1  0  0  0  0
  3  4  1  0  0  0  0
  4  5  2  0  0  0  0
  4  6  1  0  0  0  0
  6  7  1  0  0  0  0
  3  8  1  0  0  0  0
  7  8  1  0  0  0  0
  8  9  1  0  0  0  0
  9 10  1  0  0  0  0
 10 11  2  0  0  0  0
 11 12  4  0  0  0  0
 12 13  4  0  0  0  0
 10 14  1  0  0  0  0
 13 14  4  0  0  0  0
 14 15  1  0  0  0  0
 12 16  1  0  0  0  0
 16 17  1  0  0  0  0
 17 18  4  0  0  0  0
 18 19  4  0  0  0  0
 19 20  4  0  0  0  0
 20 21  4  0  0  0  0
 17 22  4  0  0  0  0
 21 22  4  0  0  0  0
 21 23  1  0  0  0  0
 23 24  4  0  0  0  0
 23 25  4  0  0  0  0
 24 25  1  0  0  0  0
  1 26  1  0  0  0  0
  1 27  1  0  0  0  0
  1 28  1  0  0  0  0
  2 29  1  0  0  0  0
  2 30  1  0  0  0  0
  3 31  1  0  0  0  0
  7 32  1  0  0  0  0
  7 33  1  0  0  0  0
  8 34  1  0  0  0  0
  9 35  1  0  0  0  0
  9 36  1  0  0  0  0
 11 37  1  0  0  0  0
 13 38  1  0  0  0  0
 15 39  1  0  0  0  0
 15 40  1  0  0  0  0
 15 41  1  0  0  0  0
 16 42  1  0  0  0  0
 16 43  1  0  0  0  0
 18 44  1  0  0  0  0
 19 45  1  0  0  0  0
 20 46  1  0  0  0  0
 22 47  1  0  0  0  0
M  CHG  1   1   1
M  END
