37

C          0.31323        0.21257       -2.43522
C          0.13832        0.63480       -0.96778
N          0.92625        1.96164       -0.64729
C          0.50241        2.45968        0.74015
C         -0.22443        3.64580        0.91891
C         -0.58670        4.07946        2.19896
C         -0.23666        3.33032        3.31758
C          0.46886        2.14327        3.15975
C          0.83449        1.70814        1.88194
C          0.72995        3.04510       -1.70401
C          2.44124        1.69610       -0.59625
C         -1.33266        0.59018       -0.56518
C         -2.32255        1.35876       -1.19727
C         -3.65809        1.27757       -0.79277
C         -4.02963        0.41435        0.23383
C         -3.06792       -0.37142        0.85899
C         -1.73175       -0.28407        0.46502
H         -0.19066        0.89140       -3.13090
H         -0.12084       -0.78180       -2.59573
H          1.36742        0.15003       -2.71950
H          0.65797       -0.13065       -0.37525
H         -0.54745        4.27142        0.09416
H         -1.15067        5.00227        2.32370
H         -0.52424        3.66900        4.31159
H          0.72908        1.55147        4.03606
H          1.36618        0.76492        1.81442
H          1.27340        3.94511       -1.39515
H          1.15310        2.69805       -2.65155
H         -0.33112        3.25604       -1.83555
H          2.94123        2.58974       -0.20756
H          2.64664        0.82765        0.03508
H          2.79443        1.49010       -1.61071
H         -2.09018        2.02078       -2.02526
H         -4.41736        1.88029       -1.28732
H         -5.07158        0.34514        0.53907
H         -3.36152       -1.05807        1.65045
H         -1.00980       -0.92174        0.97273
