35

C          1.59139        0.51008       -0.02179
C          0.94460        0.49744       -1.39818
C          0.97227       -0.86846       -2.09152
C          0.38624       -2.06593       -1.33537
N         -1.14414       -2.24796       -1.41533
C         -1.71004       -2.27777       -2.85077
C         -1.07093       -3.28188       -3.81640
C         -1.56759       -4.73053       -3.77285
C         -3.07143       -4.87843       -3.94477
C         -1.48641       -3.54199       -0.66448
C         -1.86969       -1.12246       -0.66549
H          1.00181       -0.05534        0.70523
H          1.66673        1.53823        0.34703
H          2.60082        0.08855       -0.05600
H         -0.07212        0.88820       -1.32667
H          1.48890        1.20602       -2.03557
H          0.53264       -0.77152       -3.08851
H          2.03096       -1.10293       -2.27114
H          0.82213       -2.98408       -1.74584
H          0.65195       -2.04671       -0.27323
H         -2.79172       -2.42577       -2.76615
H         -1.56737       -1.26830       -3.25339
H         -1.28022       -2.91334       -4.83053
H          0.01991       -3.27603       -3.73461
H         -1.07729       -5.27582       -4.58947
H         -1.25457       -5.23235       -2.85540
H         -3.42021       -4.35263       -4.83903
H         -3.33392       -5.93612       -4.05058
H         -3.61555       -4.49195       -3.07851
H         -1.29725       -3.38054        0.40182
H         -2.54092       -3.77754       -0.83138
H         -0.83842       -4.34282       -1.02283
H         -1.38660       -0.97711        0.30447
H         -1.83421       -0.21377       -1.26768
H         -2.91480       -1.41901       -0.52886
