 xtb: 6.7.1 (edcfbbe)
          12202406423D

 20 20  0     0  0            999 V2000
    0.4824   -0.0642   -0.1738 C   0  0  0  0  0  0  0  0  0  0  0  0
    0.3319   -1.5697   -0.0035 C   0  0  0  0  0  0  0  0  0  0  0  0
    1.2177   -2.1352    1.1153 C   0  0  0  0  0  0  0  0  0  0  0  0
    0.7851   -1.6636    2.4046 N   0  0  0  0  0  0  0  0  0  0  0  0
    1.1513   -0.5457    3.0516 C   0  0  0  0  0  0  0  0  0  0  0  0
    0.3945   -0.5044    4.1997 C   0  0  0  0  0  0  0  0  0  0  0  0
   -0.3754   -1.6163    4.1472 N   0  0  0  0  0  0  0  0  0  0  0  0
   -0.1350   -2.3094    3.0740 N   0  0  0  0  0  0  0  0  0  0  0  0
   -1.3491   -1.9731    4.9973 N   0  0  0  0  0  0  0  0  0  0  0  0
    0.1433    0.4788    0.7065 H   0  0  0  0  0  0  0  0  0  0  0  0
   -0.1161    0.2689   -1.0163 H   0  0  0  0  0  0  0  0  0  0  0  0
    1.5178    0.2005   -0.3742 H   0  0  0  0  0  0  0  0  0  0  0  0
   -0.7090   -1.8252    0.2008 H   0  0  0  0  0  0  0  0  0  0  0  0
    0.6224   -2.0688   -0.9274 H   0  0  0  0  0  0  0  0  0  0  0  0
    1.1485   -3.2240    1.1275 H   0  0  0  0  0  0  0  0  0  0  0  0
    2.2551   -1.8311    0.9663 H   0  0  0  0  0  0  0  0  0  0  0  0
    1.8993    0.1282    2.6870 H   0  0  0  0  0  0  0  0  0  0  0  0
    0.3560    0.2058    4.9990 H   0  0  0  0  0  0  0  0  0  0  0  0
   -1.7040   -2.9078    4.8341 H   0  0  0  0  0  0  0  0  0  0  0  0
   -1.2019   -1.7243    5.9669 H   0  0  0  0  0  0  0  0  0  0  0  0
  1  2  1  0  0  0  0
  2  3  1  0  0  0  0
  3  4  1  0  0  0  0
  4  5  4  0  0  0  0
  5  6  4  0  0  0  0
  6  7  4  0  0  0  0
  4  8  4  0  0  0  0
  7  8  4  0  0  0  0
  7  9  1  0  0  0  0
  1 10  1  0  0  0  0
  1 11  1  0  0  0  0
  1 12  1  0  0  0  0
  2 13  1  0  0  0  0
  2 14  1  0  0  0  0
  3 15  1  0  0  0  0
  3 16  1  0  0  0  0
  5 17  1  0  0  0  0
  6 18  1  0  0  0  0
  9 19  1  0  0  0  0
  9 20  1  0  0  0  0
M  CHG  1   1   1
M  END
