26

C          2.00158        0.15101       -0.84502
C          0.60948        0.67326       -1.07913
O         -0.34412       -0.09354       -1.21406
C          0.42000        2.15516       -1.14374
N          0.22121        3.02062        0.05283
C         -0.20435        2.53947        1.26985
C         -0.61850        1.11173        1.51074
C         -0.30237        3.41311        2.37052
C         -0.02391        4.75868        2.24437
C          0.33041        5.23917        1.00255
C          0.42897        4.37620       -0.10039
C          0.77872        5.01752       -1.42443
H          1.96664       -0.93523       -0.71940
H          2.41773        0.59541        0.06179
H          2.63045        0.38709       -1.70667
H          1.31944        2.52711       -1.64994
H         -0.44000        2.35492       -1.79508
H          0.24422        0.44401        1.46116
H         -1.05092        0.98452        2.51002
H         -1.39781        0.81882        0.80398
H         -0.62149        3.03908        3.34418
H         -0.11158        5.42852        3.09801
H          0.51808        6.30675        0.88411
H          0.20387        5.94216       -1.55180
H          1.84496        5.26307       -1.44410
H          0.54180        4.39596       -2.28932
