 xtb: 6.7.1 (edcfbbe)
          12202406423D

 25 26  0     0  0            999 V2000
    1.3303   -0.6368   -0.4380 C   0  0  0  0  0  0  0  0  0  0  0  0
    0.1504   -1.1607    0.3757 C   0  0  0  0  0  0  0  0  0  0  0  0
    0.6040   -1.7517    1.6110 N   0  0  0  0  0  0  0  0  0  0  0  0
    0.6920   -3.0393    1.7399 N   0  0  0  0  0  0  0  0  0  0  0  0
    1.1627   -3.2670    2.9312 N   0  0  0  0  0  0  0  0  0  0  0  0
    1.3680   -4.6018    3.4340 C   0  0  0  0  0  0  0  0  0  0  0  0
    2.3114   -4.5529    4.6314 C   0  0  0  0  0  0  0  0  0  0  0  0
    1.8406   -3.4874    5.6189 C   0  0  0  0  0  0  0  0  0  0  0  0
    1.9451   -2.0999    4.9811 C   0  0  0  0  0  0  0  0  0  0  0  0
    1.3919   -2.1190    3.6067 C   0  0  0  0  0  0  0  0  0  0  0  0
    1.0226   -1.1215    2.7255 C   0  0  0  0  0  0  0  0  0  0  0  0
    1.8669    0.1403    0.1014 H   0  0  0  0  0  0  0  0  0  0  0  0
    0.9599   -0.2138   -1.3664 H   0  0  0  0  0  0  0  0  0  0  0  0
    2.0196   -1.4423   -0.6795 H   0  0  0  0  0  0  0  0  0  0  0  0
   -0.5410   -0.3488    0.6130 H   0  0  0  0  0  0  0  0  0  0  0  0
   -0.3763   -1.9422   -0.1750 H   0  0  0  0  0  0  0  0  0  0  0  0
    1.7605   -5.2164    2.6215 H   0  0  0  0  0  0  0  0  0  0  0  0
    0.3952   -5.0107    3.7267 H   0  0  0  0  0  0  0  0  0  0  0  0
    3.3261   -4.3268    4.2989 H   0  0  0  0  0  0  0  0  0  0  0  0
    2.3253   -5.5322    5.1067 H   0  0  0  0  0  0  0  0  0  0  0  0
    0.8078   -3.6865    5.9099 H   0  0  0  0  0  0  0  0  0  0  0  0
    2.4502   -3.5161    6.5201 H   0  0  0  0  0  0  0  0  0  0  0  0
    1.4232   -1.3509    5.5788 H   0  0  0  0  0  0  0  0  0  0  0  0
    2.9940   -1.7919    4.9274 H   0  0  0  0  0  0  0  0  0  0  0  0
    1.0315   -0.0569    2.8335 H   0  0  0  0  0  0  0  0  0  0  0  0
  1  2  1  0  0  0  0
  2  3  1  0  0  0  0
  3  4  4  0  0  0  0
  4  5  4  0  0  0  0
  5  6  1  0  0  0  0
  6  7  1  0  0  0  0
  7  8  1  0  0  0  0
  8  9  1  0  0  0  0
  5 10  4  0  0  0  0
  9 10  1  0  0  0  0
  3 11  4  0  0  0  0
 10 11  4  0  0  0  0
  1 12  1  0  0  0  0
  1 13  1  0  0  0  0
  1 14  1  0  0  0  0
  2 15  1  0  0  0  0
  2 16  1  0  0  0  0
  6 17  1  0  0  0  0
  6 18  1  0  0  0  0
  7 19  1  0  0  0  0
  7 20  1  0  0  0  0
  8 21  1  0  0  0  0
  8 22  1  0  0  0  0
  9 23  1  0  0  0  0
  9 24  1  0  0  0  0
 11 25  1  0  0  0  0
M  CHG  1   1   1
M  END
