30

C          1.84173       -0.67548       -0.19514
C          1.04321       -1.61690        0.69531
C          1.07208       -1.21771        2.17241
C          0.30677        0.06319        2.50334
N         -1.14716       -0.13997        2.51952
N         -1.69239       -0.60986        3.63524
N         -2.98455       -0.63913        3.34331
C         -3.29906       -0.20020        2.05815
C         -2.06324        0.14365        1.50505
C         -1.93763        0.64591        0.21444
C         -3.13423        0.77708       -0.50687
C         -4.38161        0.42729        0.05118
C         -4.49397       -0.07064        1.35842
C         -3.90349       -1.09106        4.37978
H          1.42026        0.33302       -0.20379
H          1.84329       -1.04355       -1.22608
H          2.88186       -0.60860        0.14004
H          0.01241       -1.68665        0.33401
H          1.47461       -2.62091        0.60117
H          0.66309       -2.04581        2.76399
H          2.11669       -1.09505        2.48336
H          0.59817        0.40493        3.50498
H          0.54936        0.87947        1.81692
H         -0.97976        0.91533       -0.21180
H         -3.10185        1.16001       -1.52826
H         -5.28266        0.54923       -0.55231
H         -5.45103       -0.33686        1.78996
H         -3.56429       -2.05511        4.76967
H         -3.92029       -0.35150        5.18554
H         -4.91240       -1.20756        3.97766
