 xtb: 6.7.1 (edcfbbe)
          12202406423D

 30 31  0     0  0            999 V2000
    1.7176   -0.7198   -0.2282 C   0  0  0  0  0  0  0  0  0  0  0  0
    0.9001   -1.5978    0.7123 C   0  0  0  0  0  0  0  0  0  0  0  0
    1.0513   -1.1973    2.1801 C   0  0  0  0  0  0  0  0  0  0  0  0
    0.3373    0.1108    2.5469 C   0  0  0  0  0  0  0  0  0  0  0  0
   -1.0925   -0.0596    2.5486 N   0  0  0  0  0  0  0  0  0  0  0  0
   -1.6909   -0.5518    3.5891 N   0  0  0  0  0  0  0  0  0  0  0  0
   -2.9604   -0.6507    3.3387 N   0  0  0  0  0  0  0  0  0  0  0  0
   -3.2395   -0.2086    2.0778 C   0  0  0  0  0  0  0  0  0  0  0  0
   -1.9886    0.1850    1.5471 C   0  0  0  0  0  0  0  0  0  0  0  0
   -1.8840    0.7051    0.2570 C   0  0  0  0  0  0  0  0  0  0  0  0
   -3.0532    0.8070   -0.4596 C   0  0  0  0  0  0  0  0  0  0  0  0
   -4.2946    0.4134    0.0697 C   0  0  0  0  0  0  0  0  0  0  0  0
   -4.4172   -0.0991    1.3399 C   0  0  0  0  0  0  0  0  0  0  0  0
   -3.8733   -1.1577    4.3188 C   0  0  0  0  0  0  0  0  0  0  0  0
    1.4219    0.3257   -0.1747 H   0  0  0  0  0  0  0  0  0  0  0  0
    1.5907   -1.0526   -1.2545 H   0  0  0  0  0  0  0  0  0  0  0  0
    2.7738   -0.7837    0.0195 H   0  0  0  0  0  0  0  0  0  0  0  0
   -0.1532   -1.5809    0.4197 H   0  0  0  0  0  0  0  0  0  0  0  0
    1.2448   -2.6273    0.6076 H   0  0  0  0  0  0  0  0  0  0  0  0
    0.6677   -1.9894    2.8261 H   0  0  0  0  0  0  0  0  0  0  0  0
    2.1100   -1.0688    2.4058 H   0  0  0  0  0  0  0  0  0  0  0  0
    0.6276    0.4109    3.5554 H   0  0  0  0  0  0  0  0  0  0  0  0
    0.5900    0.9038    1.8431 H   0  0  0  0  0  0  0  0  0  0  0  0
   -0.9383    1.0075   -0.1601 H   0  0  0  0  0  0  0  0  0  0  0  0
   -3.0225    1.2023   -1.4625 H   0  0  0  0  0  0  0  0  0  0  0  0
   -5.1750    0.5207   -0.5437 H   0  0  0  0  0  0  0  0  0  0  0  0
   -5.3688   -0.3987    1.7461 H   0  0  0  0  0  0  0  0  0  0  0  0
   -3.3034   -1.4383    5.2024 H   0  0  0  0  0  0  0  0  0  0  0  0
   -4.6051   -0.3929    4.5834 H   0  0  0  0  0  0  0  0  0  0  0  0
   -4.3986   -2.0303    3.9276 H   0  0  0  0  0  0  0  0  0  0  0  0
  1  2  1  0  0  0  0
  2  3  1  0  0  0  0
  3  4  1  0  0  0  0
  4  5  1  0  0  0  0
  5  6  4  0  0  0  0
  6  7  4  0  0  0  0
  7  8  1  0  0  0  0
  5  9  1  0  0  0  0
  8  9  4  0  0  0  0
  9 10  4  0  0  0  0
 10 11  2  0  0  0  0
 11 12  4  0  0  0  0
  8 13  4  0  0  0  0
 12 13  2  0  0  0  0
  7 14  1  0  0  0  0
  1 15  1  0  0  0  0
  1 16  1  0  0  0  0
  1 17  1  0  0  0  0
  2 18  1  0  0  0  0
  2 19  1  0  0  0  0
  3 20  1  0  0  0  0
  3 21  1  0  0  0  0
  4 22  1  0  0  0  0
  4 23  1  0  0  0  0
 10 24  1  0  0  0  0
 11 25  1  0  0  0  0
 12 26  1  0  0  0  0
 13 27  1  0  0  0  0
 14 28  1  0  0  0  0
 14 29  1  0  0  0  0
 14 30  1  0  0  0  0
M  CHG  1   1   1
M  END
