 xtb: 6.7.1 (edcfbbe)
          12202406423D

 73 73  0     0  0            999 V2000
    1.2836   -0.4951    0.8086 C   0  0  0  0  0  0  0  0  0  0  0  0
    1.2854    0.8783    1.4693 C   0  0  0  0  0  0  0  0  0  0  0  0
    1.6412    2.0120    0.5061 C   0  0  0  0  0  0  0  0  0  0  0  0
    0.6823    2.1823   -0.6741 C   0  0  0  0  0  0  0  0  0  0  0  0
   -0.7754    2.4448   -0.2914 C   0  0  0  0  0  0  0  0  0  0  0  0
   -1.0036    3.6883    0.5698 C   0  0  0  0  0  0  0  0  0  0  0  0
   -0.5500    5.0056   -0.0627 C   0  0  0  0  0  0  0  0  0  0  0  0
   -1.2119    5.3440   -1.4001 C   0  0  0  0  0  0  0  0  0  0  0  0
   -2.7400    5.4090   -1.3669 C   0  0  0  0  0  0  0  0  0  0  0  0
   -3.3219    6.4230   -0.3804 C   0  0  0  0  0  0  0  0  0  0  0  0
   -2.9361    7.8793   -0.6474 C   0  0  0  0  0  0  0  0  0  0  0  0
   -3.3519    8.4186   -2.0183 C   0  0  0  0  0  0  0  0  0  0  0  0
   -4.8403    8.2788   -2.3470 C   0  0  0  0  0  0  0  0  0  0  0  0
   -5.7888    8.9536   -1.3528 C   0  0  0  0  0  0  0  0  0  0  0  0
   -5.7079   10.4849   -1.3522 C   0  0  0  0  0  0  0  0  0  0  0  0
   -6.2900   11.1461   -2.6074 C   0  0  0  0  0  0  0  0  0  0  0  0
   -7.6806   11.6836   -2.4967 N   0  0  0  0  0  0  0  0  0  0  0  0
   -7.7427   12.8687   -1.5757 C   0  0  0  0  0  0  0  0  0  0  0  0
   -6.9945   14.0818   -2.0547 C   0  0  0  0  0  0  0  0  0  0  0  0
   -5.6559   14.2845   -1.7366 C   0  0  0  0  0  0  0  0  0  0  0  0
   -4.9932   15.4279   -2.1420 C   0  0  0  0  0  0  0  0  0  0  0  0
   -5.6738   16.3984   -2.8588 C   0  0  0  0  0  0  0  0  0  0  0  0
   -7.0105   16.2269   -3.1646 C   0  0  0  0  0  0  0  0  0  0  0  0
   -7.6778   15.0747   -2.7684 C   0  0  0  0  0  0  0  0  0  0  0  0
   -8.9942   14.8710   -3.0525 O   0  0  0  0  0  0  0  0  0  0  0  0
   -8.1149   12.0886   -3.8467 C   0  0  0  0  0  0  0  0  0  0  0  0
   -8.6128   10.6585   -1.9996 C   0  0  0  0  0  0  0  0  0  0  0  0
    0.4866   -0.5767    0.0740 H   0  0  0  0  0  0  0  0  0  0  0  0
    1.1347   -1.2720    1.5551 H   0  0  0  0  0  0  0  0  0  0  0  0
    2.2327   -0.6781    0.3094 H   0  0  0  0  0  0  0  0  0  0  0  0
    0.3094    1.0660    1.9206 H   0  0  0  0  0  0  0  0  0  0  0  0
    2.0210    0.8790    2.2774 H   0  0  0  0  0  0  0  0  0  0  0  0
    1.6911    2.9461    1.0698 H   0  0  0  0  0  0  0  0  0  0  0  0
    2.6402    1.8246    0.1037 H   0  0  0  0  0  0  0  0  0  0  0  0
    1.0468    3.0049   -1.2933 H   0  0  0  0  0  0  0  0  0  0  0  0
    0.7144    1.2826   -1.2915 H   0  0  0  0  0  0  0  0  0  0  0  0
   -1.3598    2.5290   -1.2106 H   0  0  0  0  0  0  0  0  0  0  0  0
   -1.1631    1.5809    0.2520 H   0  0  0  0  0  0  0  0  0  0  0  0
   -2.0684    3.7490    0.8071 H   0  0  0  0  0  0  0  0  0  0  0  0
   -0.4748    3.5683    1.5172 H   0  0  0  0  0  0  0  0  0  0  0  0
   -0.7419    5.8111    0.6502 H   0  0  0  0  0  0  0  0  0  0  0  0
    0.5297    4.9733   -0.2194 H   0  0  0  0  0  0  0  0  0  0  0  0
   -0.8147    6.3012   -1.7463 H   0  0  0  0  0  0  0  0  0  0  0  0
   -0.9231    4.5953   -2.1401 H   0  0  0  0  0  0  0  0  0  0  0  0
   -3.0951    5.6355   -2.3751 H   0  0  0  0  0  0  0  0  0  0  0  0
   -3.1316    4.4240   -1.1071 H   0  0  0  0  0  0  0  0  0  0  0  0
   -4.4104    6.3260   -0.3897 H   0  0  0  0  0  0  0  0  0  0  0  0
   -2.9915    6.1673    0.6274 H   0  0  0  0  0  0  0  0  0  0  0  0
   -3.3723    8.5011    0.1388 H   0  0  0  0  0  0  0  0  0  0  0  0
   -1.8534    7.9815   -0.5631 H   0  0  0  0  0  0  0  0  0  0  0  0
   -3.0555    9.4690   -2.0799 H   0  0  0  0  0  0  0  0  0  0  0  0
   -2.7924    7.8898   -2.7908 H   0  0  0  0  0  0  0  0  0  0  0  0
   -5.0058    8.6763   -3.3523 H   0  0  0  0  0  0  0  0  0  0  0  0
   -5.0915    7.2186   -2.3812 H   0  0  0  0  0  0  0  0  0  0  0  0
   -6.8068    8.6257   -1.5688 H   0  0  0  0  0  0  0  0  0  0  0  0
   -5.5473    8.6017   -0.3504 H   0  0  0  0  0  0  0  0  0  0  0  0
   -6.1859   10.8684   -0.4504 H   0  0  0  0  0  0  0  0  0  0  0  0
   -4.6559   10.7621   -1.2841 H   0  0  0  0  0  0  0  0  0  0  0  0
   -5.6635   11.9858   -2.9132 H   0  0  0  0  0  0  0  0  0  0  0  0
   -6.2899   10.4150   -3.4181 H   0  0  0  0  0  0  0  0  0  0  0  0
   -8.7955   13.1373   -1.4676 H   0  0  0  0  0  0  0  0  0  0  0  0
   -7.3550   12.5606   -0.6044 H   0  0  0  0  0  0  0  0  0  0  0  0
   -5.1340   13.5471   -1.1449 H   0  0  0  0  0  0  0  0  0  0  0  0
   -3.9554   15.5686   -1.8881 H   0  0  0  0  0  0  0  0  0  0  0  0
   -5.1671   17.2975   -3.1705 H   0  0  0  0  0  0  0  0  0  0  0  0
   -7.5479   16.9916   -3.7069 H   0  0  0  0  0  0  0  0  0  0  0  0
   -9.3706   15.6649   -3.4522 H   0  0  0  0  0  0  0  0  0  0  0  0
   -8.1849   11.2174   -4.4951 H   0  0  0  0  0  0  0  0  0  0  0  0
   -9.0867   12.5755   -3.7927 H   0  0  0  0  0  0  0  0  0  0  0  0
   -7.4015   12.7907   -4.2737 H   0  0  0  0  0  0  0  0  0  0  0  0
   -8.5704    9.7783   -2.6384 H   0  0  0  0  0  0  0  0  0  0  0  0
   -8.3618   10.3713   -0.9815 H   0  0  0  0  0  0  0  0  0  0  0  0
   -9.6299   11.0471   -2.0107 H   0  0  0  0  0  0  0  0  0  0  0  0
  1  2  1  0  0  0  0
  2  3  1  0  0  0  0
  3  4  1  0  0  0  0
  4  5  1  0  0  0  0
  5  6  1  0  0  0  0
  6  7  1  0  0  0  0
  7  8  1  0  0  0  0
  8  9  1  0  0  0  0
  9 10  1  0  0  0  0
 10 11  1  0  0  0  0
 11 12  1  0  0  0  0
 12 13  1  0  0  0  0
 13 14  1  0  0  0  0
 14 15  1  0  0  0  0
 15 16  1  0  0  0  0
 16 17  1  0  0  0  0
 17 18  1  0  0  0  0
 18 19  1  0  0  0  0
 19 20  4  0  0  0  0
 20 21  4  0  0  0  0
 21 22  4  0  0  0  0
 22 23  4  0  0  0  0
 19 24  4  0  0  0  0
 23 24  4  0  0  0  0
 24 25  1  0  0  0  0
 17 26  1  0  0  0  0
 17 27  1  0  0  0  0
  1 28  1  0  0  0  0
  1 29  1  0  0  0  0
  1 30  1  0  0  0  0
  2 31  1  0  0  0  0
  2 32  1  0  0  0  0
  3 33  1  0  0  0  0
  3 34  1  0  0  0  0
  4 35  1  0  0  0  0
  4 36  1  0  0  0  0
  5 37  1  0  0  0  0
  5 38  1  0  0  0  0
  6 39  1  0  0  0  0
  6 40  1  0  0  0  0
  7 41  1  0  0  0  0
  7 42  1  0  0  0  0
  8 43  1  0  0  0  0
  8 44  1  0  0  0  0
  9 45  1  0  0  0  0
  9 46  1  0  0  0  0
 10 47  1  0  0  0  0
 10 48  1  0  0  0  0
 11 49  1  0  0  0  0
 11 50  1  0  0  0  0
 12 51  1  0  0  0  0
 12 52  1  0  0  0  0
 13 53  1  0  0  0  0
 13 54  1  0  0  0  0
 14 55  1  0  0  0  0
 14 56  1  0  0  0  0
 15 57  1  0  0  0  0
 15 58  1  0  0  0  0
 16 59  1  0  0  0  0
 16 60  1  0  0  0  0
 18 61  1  0  0  0  0
 18 62  1  0  0  0  0
 20 63  1  0  0  0  0
 21 64  1  0  0  0  0
 22 65  1  0  0  0  0
 23 66  1  0  0  0  0
 25 67  1  0  0  0  0
 26 68  1  0  0  0  0
 26 69  1  0  0  0  0
 26 70  1  0  0  0  0
 27 71  1  0  0  0  0
 27 72  1  0  0  0  0
 27 73  1  0  0  0  0
M  CHG  1   1   1
M  END
