34

C          1.46367       -0.32872        0.15308
C          0.80663        0.32278        1.35984
C          0.84110        1.85445        1.34304
C          0.27436        2.56823        0.11074
N         -1.24810        2.78655        0.09014
C         -1.79979        3.51479        1.34600
C         -1.11447        4.84328        1.77052
C         -1.44986        6.03484        0.91426
C         -2.52212        6.82656        1.06018
O         -1.52163        5.11157        3.11443
C         -1.59075        3.58343       -1.17694
C         -2.00013        1.45677       -0.02798
H          0.88285       -0.16389       -0.75873
H          1.53454       -1.41081        0.30448
H          2.47564        0.05783       -0.00248
H         -0.21308       -0.05238        1.46509
H          1.33898       -0.01264        2.25912
H          0.38764        2.22996        2.26521
H          1.89992        2.14158        1.40929
H          0.72159        3.56739        0.05090
H          0.53871        2.05306       -0.81858
H         -2.87233        3.67659        1.17312
H         -1.73515        2.79901        2.17494
H         -0.02797        4.72605        1.80969
H         -0.73099        6.29334        0.13859
H         -2.67446        7.68971        0.41613
H         -3.27191        6.65037        1.82824
H         -1.21163        6.00673        3.34824
H         -1.38722        2.94827       -2.04518
H         -2.64938        3.85670       -1.14633
H         -0.95652        4.46977       -1.22419
H         -1.53671        0.86110       -0.81923
H         -1.96299        0.93976        0.93156
H         -3.04439        1.67226       -0.27666
