35

C          1.13673        0.52568        0.30048
C          0.84259        1.04109       -1.10037
C          1.24820        0.06526       -2.20861
C          0.56753       -1.30672       -2.16001
C         -0.95949       -1.28444       -2.27492
C         -1.52412       -0.70393       -3.57522
C         -1.01689       -1.27396       -4.90563
N         -1.58173       -2.64225       -5.33514
C         -3.10561       -2.65541       -5.33462
C         -1.10847       -2.89321       -6.77674
C         -1.06197       -3.78962       -4.48167
H          0.51176       -0.33692        0.54986
H          0.93142        1.30646        1.03983
H          2.18692        0.23330        0.39970
H         -0.22008        1.29353       -1.18199
H          1.39441        1.97739       -1.24810
H          1.05691        0.53676       -3.17960
H          2.33347       -0.08964       -2.15771
H          0.98862       -1.93180       -2.95492
H          0.83697       -1.81076       -1.22433
H         -1.33785       -2.29723       -2.12121
H         -1.37320       -0.70741       -1.43868
H         -2.61759       -0.73867       -3.53149
H         -1.28400        0.36782       -3.58095
H         -1.31011       -0.57439       -5.69921
H          0.07499       -1.35037       -4.93041
H         -3.45987       -1.79764       -5.91335
H         -3.44346       -3.59099       -5.79109
H         -3.46085       -2.60455       -4.30238
H         -0.01447       -2.89592       -6.78328
H         -1.49532       -3.86184       -7.10813
H         -1.49801       -2.09349       -7.41382
H          0.02142       -3.68870       -4.38006
H         -1.55920       -3.76898       -3.51248
H         -1.30829       -4.73248       -4.98068
