34

C          0.43813       -0.26277        1.15368
N          0.22218       -1.34946        0.20648
C         -0.77835       -1.41482       -0.74677
C         -0.59844       -2.58672       -1.42577
N          0.51170       -3.20337       -0.87221
C          0.97494       -2.45985        0.14876
C          1.10875       -4.47915       -1.30881
C          2.61683       -4.35105       -1.43515
O          3.33602       -4.04178       -0.48748
C          3.19222       -4.53357       -2.77947
C          2.94277       -3.52183       -3.71683
C          3.43472       -3.65026       -5.00907
C          4.16818       -4.78302       -5.36085
C          4.43120       -5.80053       -4.42750
C          3.94736       -5.68590       -3.10162
C          4.24442       -6.72656       -2.18957
C          4.98585       -7.84294       -2.58145
C          5.44847       -7.94501       -3.88739
C          5.17502       -6.92992       -4.80288
H         -0.13829       -0.46509        2.05975
H          0.11497        0.68300        0.71014
H          1.50200       -0.19793        1.39763
H         -1.49021       -0.61051       -0.82035
H         -1.11783       -3.06001       -2.24163
H          1.80884       -2.69517        0.80238
H          0.87960       -5.24394       -0.55962
H          0.65868       -4.78414       -2.25892
H          2.38851       -2.62662       -3.44697
H          3.26060       -2.86967       -5.74674
H          4.54826       -4.86327       -6.37911
H          3.92228       -6.67508       -1.15157
H          5.21191       -8.62886       -1.86415
H          6.03154       -8.81053       -4.19423
H          5.55601       -7.02868       -5.81821
