 xtb: 6.7.1 (edcfbbe)
          12202406423D

 12 13  0     0  0            999 V2000
    1.1897   -0.1349   -0.7724 N   0  0  0  0  0  0  0  0  0  0  0  0
    2.1731   -0.2214   -0.2684 N   0  0  0  0  0  0  0  0  0  0  0  0
    3.2610   -0.0971    0.2432 N   0  0  0  0  0  0  0  0  0  0  0  0
    4.0516   -0.9884    0.8178 C   0  0  0  0  0  0  0  0  0  0  0  0
    3.9543   -2.2325    1.0243 N   0  0  0  0  0  0  0  0  0  0  0  0
    5.0932   -2.6715    1.6763 C   0  0  0  0  0  0  0  0  0  0  0  0
    5.9575   -1.6718    1.8989 C   0  0  0  0  0  0  0  0  0  0  0  0
    5.3795   -0.4424    1.3634 N   0  0  0  0  0  0  0  0  0  0  0  0
    5.1794   -3.7108    1.9307 H   0  0  0  0  0  0  0  0  0  0  0  0
    6.9187   -1.6652    2.3706 H   0  0  0  0  0  0  0  0  0  0  0  0
    5.2315    0.2784    2.0844 H   0  0  0  0  0  0  0  0  0  0  0  0
    5.9545   -0.0131    0.6242 H   0  0  0  0  0  0  0  0  0  0  0  0
  1  2  3  0  0  0  0
  1  3  1  0  0  0  0
  2  3  4  0  0  0  0
  3  4  4  0  0  0  0
  4  5  2  0  0  0  0
  5  6  1  0  0  0  0
  6  7  2  0  0  0  0
  4  8  1  0  0  0  0
  7  8  1  0  0  0  0
  6  9  1  0  0  0  0
  7 10  1  0  0  0  0
  8 11  1  0  0  0  0
  8 12  1  0  0  0  0
M  CHG  1   1   1
M  END
