 xtb: 6.7.1 (edcfbbe)
          12202406423D

 34 36  0     0  0            999 V2000
    0.5725   -1.4231    2.0291 C   0  0  0  0  0  0  0  0  0  0  0  0
    0.3894   -1.6941    0.6293 N   0  0  0  0  0  0  0  0  0  0  0  0
   -0.0261   -0.7883   -0.3007 C   0  0  0  0  0  0  0  0  0  0  0  0
   -0.0581   -1.4248   -1.5018 C   0  0  0  0  0  0  0  0  0  0  0  0
    0.3234   -2.7167   -1.2863 N   0  0  0  0  0  0  0  0  0  0  0  0
    0.6047   -2.8516    0.0104 C   0  0  0  0  0  0  0  0  0  0  0  0
    0.6584   -3.6869   -2.2823 C   0  0  0  0  0  0  0  0  0  0  0  0
    2.2000   -3.9407   -2.2096 C   0  0  0  0  0  0  0  0  0  0  0  0
    2.7587   -3.6322   -1.1810 O   0  0  0  0  0  0  0  0  0  0  0  0
    2.8045   -4.5843   -3.3685 C   0  0  0  0  0  0  0  0  0  0  0  0
    2.3750   -4.2714   -4.6489 C   0  0  0  0  0  0  0  0  0  0  0  0
    2.9689   -4.8390   -5.7749 C   0  0  0  0  0  0  0  0  0  0  0  0
    3.9860   -5.7456   -5.6314 C   0  0  0  0  0  0  0  0  0  0  0  0
    4.4572   -6.1054   -4.3546 C   0  0  0  0  0  0  0  0  0  0  0  0
    3.8812   -5.5149   -3.1936 C   0  0  0  0  0  0  0  0  0  0  0  0
    4.3754   -5.9085   -1.9351 C   0  0  0  0  0  0  0  0  0  0  0  0
    5.3930   -6.8193   -1.8302 C   0  0  0  0  0  0  0  0  0  0  0  0
    5.9658   -7.3916   -2.9743 C   0  0  0  0  0  0  0  0  0  0  0  0
    5.5036   -7.0421   -4.2113 C   0  0  0  0  0  0  0  0  0  0  0  0
   -0.3725   -1.1194    2.4810 H   0  0  0  0  0  0  0  0  0  0  0  0
    1.2955   -0.6175    2.1611 H   0  0  0  0  0  0  0  0  0  0  0  0
    0.9404   -2.3140    2.5322 H   0  0  0  0  0  0  0  0  0  0  0  0
   -0.2628    0.2258   -0.0512 H   0  0  0  0  0  0  0  0  0  0  0  0
   -0.3270   -1.0559   -2.4703 H   0  0  0  0  0  0  0  0  0  0  0  0
    0.9266   -3.7567    0.4858 H   0  0  0  0  0  0  0  0  0  0  0  0
    0.1795   -4.6473   -2.0682 H   0  0  0  0  0  0  0  0  0  0  0  0
    0.3315   -3.3419   -3.2602 H   0  0  0  0  0  0  0  0  0  0  0  0
    1.6090   -3.5279   -4.8075 H   0  0  0  0  0  0  0  0  0  0  0  0
    2.6232   -4.5524   -6.7557 H   0  0  0  0  0  0  0  0  0  0  0  0
    4.4492   -6.1898   -6.4996 H   0  0  0  0  0  0  0  0  0  0  0  0
    3.9600   -5.4777   -1.0387 H   0  0  0  0  0  0  0  0  0  0  0  0
    5.7606   -7.1022   -0.8557 H   0  0  0  0  0  0  0  0  0  0  0  0
    6.7658   -8.1078   -2.8698 H   0  0  0  0  0  0  0  0  0  0  0  0
    5.9264   -7.4799   -5.1029 H   0  0  0  0  0  0  0  0  0  0  0  0
  1  2  1  0  0  0  0
  2  3  4  0  0  0  0
  3  4  2  0  0  0  0
  4  5  4  0  0  0  0
  2  6  4  0  0  0  0
  5  6  4  0  0  0  0
  5  7  1  0  0  0  0
  7  8  1  0  0  0  0
  8  9  2  0  0  0  0
  8 10  1  0  0  0  0
 10 11  4  0  0  0  0
 11 12  4  0  0  0  0
 12 13  2  0  0  0  0
 13 14  4  0  0  0  0
 10 15  4  0  0  0  0
 14 15  4  0  0  0  0
 15 16  4  0  0  0  0
 16 17  2  0  0  0  0
 17 18  4  0  0  0  0
 14 19  4  0  0  0  0
 18 19  2  0  0  0  0
  1 20  1  0  0  0  0
  1 21  1  0  0  0  0
  1 22  1  0  0  0  0
  3 23  1  0  0  0  0
  4 24  1  0  0  0  0
  6 25  1  0  0  0  0
  7 26  1  0  0  0  0
  7 27  1  0  0  0  0
 11 28  1  0  0  0  0
 12 29  1  0  0  0  0
 13 30  1  0  0  0  0
 16 31  1  0  0  0  0
 17 32  1  0  0  0  0
 18 33  1  0  0  0  0
 19 34  1  0  0  0  0
M  CHG  1   1   1
M  END
