 xtb: 6.7.1 (edcfbbe)
          12202406423D

 34 33  0     0  0            999 V2000
    2.0666    0.0708    0.2658 C   0  0  0  0  0  0  0  0  0  0  0  0
    0.8078    0.2364    1.1091 C   0  0  0  0  0  0  0  0  0  0  0  0
    0.4885    1.7061    1.4101 C   0  0  0  0  0  0  0  0  0  0  0  0
   -0.0002    2.4972    0.1891 C   0  0  0  0  0  0  0  0  0  0  0  0
   -1.4680    2.7808    0.1371 N   0  0  0  0  0  0  0  0  0  0  0  0
   -1.9579    3.5489    1.3128 C   0  0  0  0  0  0  0  0  0  0  0  0
   -1.1265    4.7463    1.8327 C   0  0  0  0  0  0  0  0  0  0  0  0
   -1.0593    5.9101    0.8689 C   0  0  0  0  0  0  0  0  0  0  0  0
   -2.0222    6.8086    0.7639 C   0  0  0  0  0  0  0  0  0  0  0  0
   -1.8146    5.0665    3.0203 O   0  0  0  0  0  0  0  0  0  0  0  0
   -1.7445    3.5366   -1.1012 C   0  0  0  0  0  0  0  0  0  0  0  0
   -2.2249    1.5147    0.0778 C   0  0  0  0  0  0  0  0  0  0  0  0
    1.9664    0.5352   -0.7128 H   0  0  0  0  0  0  0  0  0  0  0  0
    2.2740   -0.9843    0.1137 H   0  0  0  0  0  0  0  0  0  0  0  0
    2.9226    0.5142    0.7674 H   0  0  0  0  0  0  0  0  0  0  0  0
   -0.0309   -0.2495    0.6079 H   0  0  0  0  0  0  0  0  0  0  0  0
    0.9598   -0.2760    2.0596 H   0  0  0  0  0  0  0  0  0  0  0  0
   -0.2342    1.7610    2.2232 H   0  0  0  0  0  0  0  0  0  0  0  0
    1.4045    2.1715    1.7774 H   0  0  0  0  0  0  0  0  0  0  0  0
    0.5111    3.4580    0.1287 H   0  0  0  0  0  0  0  0  0  0  0  0
    0.2471    1.9369   -0.7148 H   0  0  0  0  0  0  0  0  0  0  0  0
   -2.9530    3.9351    1.0824 H   0  0  0  0  0  0  0  0  0  0  0  0
   -2.0636    2.8785    2.1675 H   0  0  0  0  0  0  0  0  0  0  0  0
   -0.1044    4.4194    2.0810 H   0  0  0  0  0  0  0  0  0  0  0  0
   -0.1433    6.0039    0.3010 H   0  0  0  0  0  0  0  0  0  0  0  0
   -1.9486    7.6483    0.0966 H   0  0  0  0  0  0  0  0  0  0  0  0
   -2.9201    6.7387    1.3568 H   0  0  0  0  0  0  0  0  0  0  0  0
   -1.4752    5.8917    3.3850 H   0  0  0  0  0  0  0  0  0  0  0  0
   -1.3806    2.9863   -1.9673 H   0  0  0  0  0  0  0  0  0  0  0  0
   -2.8162    3.6906   -1.2132 H   0  0  0  0  0  0  0  0  0  0  0  0
   -1.2591    4.5094   -1.0668 H   0  0  0  0  0  0  0  0  0  0  0  0
   -1.9443    0.9565   -0.8137 H   0  0  0  0  0  0  0  0  0  0  0  0
   -2.0197    0.9057    0.9546 H   0  0  0  0  0  0  0  0  0  0  0  0
   -3.2932    1.7202    0.0398 H   0  0  0  0  0  0  0  0  0  0  0  0
  1  2  1  0  0  0  0
  2  3  1  0  0  0  0
  3  4  1  0  0  0  0
  4  5  1  0  0  0  0
  5  6  1  0  0  0  0
  6  7  1  0  0  0  0
  7  8  1  0  0  0  0
  8  9  2  0  0  0  0
  7 10  1  0  0  0  0
  5 11  1  0  0  0  0
  5 12  1  0  0  0  0
  1 13  1  0  0  0  0
  1 14  1  0  0  0  0
  1 15  1  0  0  0  0
  2 16  1  0  0  0  0
  2 17  1  0  0  0  0
  3 18  1  0  0  0  0
  3 19  1  0  0  0  0
  4 20  1  0  0  0  0
  4 21  1  0  0  0  0
  6 22  1  0  0  0  0
  6 23  1  0  0  0  0
  7 24  1  0  0  0  0
  8 25  1  0  0  0  0
  9 26  1  0  0  0  0
  9 27  1  0  0  0  0
 10 28  1  0  0  0  0
 11 29  1  0  0  0  0
 11 30  1  0  0  0  0
 11 31  1  0  0  0  0
 12 32  1  0  0  0  0
 12 33  1  0  0  0  0
 12 34  1  0  0  0  0
M  CHG  1   1   1
M  END
