 xtb: 6.7.1 (edcfbbe)
          12202406423D

 35 34  0     0  0            999 V2000
    1.1235    0.6254    0.2155 C   0  0  0  0  0  0  0  0  0  0  0  0
    0.8204    1.0084   -1.2279 C   0  0  0  0  0  0  0  0  0  0  0  0
    1.2266   -0.0686   -2.2359 C   0  0  0  0  0  0  0  0  0  0  0  0
    0.4932   -1.4041   -2.0819 C   0  0  0  0  0  0  0  0  0  0  0  0
   -1.0285   -1.3231   -2.2222 C   0  0  0  0  0  0  0  0  0  0  0  0
   -1.5316   -0.7233   -3.5399 C   0  0  0  0  0  0  0  0  0  0  0  0
   -0.9999   -1.3094   -4.8512 C   0  0  0  0  0  0  0  0  0  0  0  0
   -1.5485   -2.6208   -5.3317 N   0  0  0  0  0  0  0  0  0  0  0  0
   -3.0218   -2.6233   -5.3113 C   0  0  0  0  0  0  0  0  0  0  0  0
   -1.0945   -2.8098   -6.7247 C   0  0  0  0  0  0  0  0  0  0  0  0
   -1.0476   -3.7498   -4.5287 C   0  0  0  0  0  0  0  0  0  0  0  0
    0.5100   -0.2097    0.5444 H   0  0  0  0  0  0  0  0  0  0  0  0
    0.9237    1.4667    0.8736 H   0  0  0  0  0  0  0  0  0  0  0  0
    2.1698    0.3499    0.3240 H   0  0  0  0  0  0  0  0  0  0  0  0
   -0.2416    1.2416   -1.3285 H   0  0  0  0  0  0  0  0  0  0  0  0
    1.3733    1.9175   -1.4723 H   0  0  0  0  0  0  0  0  0  0  0  0
    1.0820    0.3234   -3.2460 H   0  0  0  0  0  0  0  0  0  0  0  0
    2.2947   -0.2624   -2.1178 H   0  0  0  0  0  0  0  0  0  0  0  0
    0.9047   -2.1115   -2.8071 H   0  0  0  0  0  0  0  0  0  0  0  0
    0.7131   -1.8110   -1.0949 H   0  0  0  0  0  0  0  0  0  0  0  0
   -1.4538   -2.3141   -2.0493 H   0  0  0  0  0  0  0  0  0  0  0  0
   -1.4143   -0.6887   -1.4237 H   0  0  0  0  0  0  0  0  0  0  0  0
   -2.6216   -0.7136   -3.5350 H   0  0  0  0  0  0  0  0  0  0  0  0
   -1.2187    0.3224   -3.5566 H   0  0  0  0  0  0  0  0  0  0  0  0
   -1.2158   -0.5841   -5.6391 H   0  0  0  0  0  0  0  0  0  0  0  0
    0.0834   -1.4167   -4.7804 H   0  0  0  0  0  0  0  0  0  0  0  0
   -3.4066   -1.7492   -5.8343 H   0  0  0  0  0  0  0  0  0  0  0  0
   -3.3977   -3.5185   -5.8041 H   0  0  0  0  0  0  0  0  0  0  0  0
   -3.3897   -2.6161   -4.2879 H   0  0  0  0  0  0  0  0  0  0  0  0
   -0.0078   -2.7654   -6.7772 H   0  0  0  0  0  0  0  0  0  0  0  0
   -1.4202   -3.7794   -7.0977 H   0  0  0  0  0  0  0  0  0  0  0  0
   -1.5068   -2.0353   -7.3690 H   0  0  0  0  0  0  0  0  0  0  0  0
    0.0400   -3.7757   -4.5515 H   0  0  0  0  0  0  0  0  0  0  0  0
   -1.3737   -3.6575   -3.4966 H   0  0  0  0  0  0  0  0  0  0  0  0
   -1.4262   -4.6886   -4.9301 H   0  0  0  0  0  0  0  0  0  0  0  0
  1  2  1  0  0  0  0
  2  3  1  0  0  0  0
  3  4  1  0  0  0  0
  4  5  1  0  0  0  0
  5  6  1  0  0  0  0
  6  7  1  0  0  0  0
  7  8  1  0  0  0  0
  8  9  1  0  0  0  0
  8 10  1  0  0  0  0
  8 11  1  0  0  0  0
  1 12  1  0  0  0  0
  1 13  1  0  0  0  0
  1 14  1  0  0  0  0
  2 15  1  0  0  0  0
  2 16  1  0  0  0  0
  3 17  1  0  0  0  0
  3 18  1  0  0  0  0
  4 19  1  0  0  0  0
  4 20  1  0  0  0  0
  5 21  1  0  0  0  0
  5 22  1  0  0  0  0
  6 23  1  0  0  0  0
  6 24  1  0  0  0  0
  7 25  1  0  0  0  0
  7 26  1  0  0  0  0
  9 27  1  0  0  0  0
  9 28  1  0  0  0  0
  9 29  1  0  0  0  0
 10 30  1  0  0  0  0
 10 31  1  0  0  0  0
 10 32  1  0  0  0  0
 11 33  1  0  0  0  0
 11 34  1  0  0  0  0
 11 35  1  0  0  0  0
M  CHG  1   1   1
M  END
