78

C          1.61620       -0.12992       -1.22488
C          1.34486        0.58078        0.09183
C          1.64800        2.07953        0.04174
C          0.71932        2.90063       -0.86070
C         -0.75773        2.91653       -0.44700
C         -1.03487        3.39410        0.98277
C         -0.51319        4.79693        1.31302
C         -1.18960        5.93469        0.54009
C         -2.70643        6.06741        0.73554
C         -3.21558        6.07008        2.17989
O         -3.28575        7.36760        2.76569
C         -2.07897        7.88002        3.29078
N         -1.79683        7.31206        4.60169
C         -2.67715        6.65664        5.44733
C         -1.97005        6.31657        6.56563
N         -0.68567        6.80327        6.38969
C         -0.61096        7.44388        5.21506
C          0.39447        6.74807        7.35841
O          1.64006        6.66566        6.69749
C          1.92715        5.46530        5.98217
C          1.92000        4.17338        6.80454
C          0.58858        3.40640        6.84228
C         -0.01980        3.05075        5.48200
C          0.79408        2.05485        4.65199
C          0.84604        0.62895        5.21175
C         -0.51403       -0.03086        5.47501
C         -1.49697       -0.02529        4.29803
C         -1.00649       -0.73144        3.03373
C         -0.81693       -2.22843        3.21585
H          0.94417        0.21718       -2.01476
H          1.46452       -1.20780       -1.10813
H          2.64840        0.03175       -1.55180
H          0.30750        0.40623        0.39335
H          1.97592        0.12636        0.86532
H          1.61748        2.47844        1.06215
H          2.68016        2.22126       -0.30248
H          1.09334        3.93077       -0.89483
H          0.78825        2.53214       -1.89072
H         -1.30935        3.54824       -1.15337
H         -1.17667        1.90982       -0.56311
H         -2.11457        3.34641        1.16591
H         -0.59201        2.68229        1.68651
H         -0.62170        4.96886        2.38977
H          0.56605        4.84444        1.12951
H         -0.70090        6.87681        0.80665
H         -0.99281        5.81007       -0.53191
H         -3.04114        6.98036        0.22803
H         -3.18004        5.22781        0.21161
H         -4.25457        5.72023        2.15233
H         -2.68656        5.37091        2.83210
H         -1.22796        7.71501        2.63098
H         -2.20141        8.95948        3.42679
H         -3.69868        6.51000        5.13826
H         -2.22201        5.79894        7.47578
H          0.25838        7.96424        4.82727
H          0.37391        7.68990        7.91722
H          0.25637        5.94010        8.07897
H          1.30117        5.41274        5.08931
H          2.94857        5.60561        5.60830
H          2.67818        3.49963        6.38723
H          2.22917        4.39079        7.83391
H          0.73747        2.48963        7.42525
H         -0.15409        3.98200        7.40051
H         -1.02820        2.65749        5.65027
H         -0.17309        3.95739        4.88841
H          0.36921        2.01918        3.64390
H          1.81836        2.42283        4.52275
H          1.41780        0.00517        4.51376
H          1.41900        0.62666        6.14673
H         -0.34188       -1.06293        5.80265
H         -0.99397        0.46728        6.32622
H         -2.43350       -0.49292        4.62703
H         -1.75549        1.00816        4.03991
H         -1.74445       -0.56905        2.23871
H         -0.07048       -0.28505        2.68520
H         -1.73780       -2.69935        3.57428
H         -0.55015       -2.69161        2.26050
H         -0.01567       -2.44734        3.92735
