 xtb: 6.7.1 (edcfbbe)
          12202406433D

101100  0     0  0            999 V2000
    1.2965   -1.4639    0.4442 C   0  0  0  0  0  0  0  0  0  0  0  0
    1.4265   -0.6062    1.6972 C   0  0  0  0  0  0  0  0  0  0  0  0
    1.5365    0.8891    1.3952 C   0  0  0  0  0  0  0  0  0  0  0  0
    0.3128    1.5025    0.7113 C   0  0  0  0  0  0  0  0  0  0  0  0
   -0.9959    1.3845    1.4955 C   0  0  0  0  0  0  0  0  0  0  0  0
   -0.9673    1.9957    2.8978 C   0  0  0  0  0  0  0  0  0  0  0  0
   -0.6256    3.4860    2.9454 C   0  0  0  0  0  0  0  0  0  0  0  0
   -1.6087    4.3991    2.2100 C   0  0  0  0  0  0  0  0  0  0  0  0
   -3.0483    4.3517    2.7273 C   0  0  0  0  0  0  0  0  0  0  0  0
   -3.2119    4.6639    4.2162 C   0  0  0  0  0  0  0  0  0  0  0  0
   -2.6745    6.0281    4.6522 C   0  0  0  0  0  0  0  0  0  0  0  0
   -3.3664    7.2315    4.0090 C   0  0  0  0  0  0  0  0  0  0  0  0
   -4.8641    7.3528    4.3013 C   0  0  0  0  0  0  0  0  0  0  0  0
   -5.2343    7.3725    5.7863 C   0  0  0  0  0  0  0  0  0  0  0  0
   -4.5538    8.4752    6.6000 C   0  0  0  0  0  0  0  0  0  0  0  0
   -4.9050    9.9040    6.1796 C   0  0  0  0  0  0  0  0  0  0  0  0
   -6.3961   10.2681    6.2423 C   0  0  0  0  0  0  0  0  0  0  0  0
   -7.1491    9.9169    7.5294 C   0  0  0  0  0  0  0  0  0  0  0  0
   -7.1102   10.8998    8.6587 N   0  0  0  0  0  0  0  0  0  0  0  0
   -7.8999   12.1336    8.3480 C   0  0  0  0  0  0  0  0  0  0  0  0
   -9.4261   12.0132    8.2908 C   0  0  0  0  0  0  0  0  0  0  0  0
  -10.1878   12.1921    9.6126 C   0  0  0  0  0  0  0  0  0  0  0  0
   -9.8250   13.4412   10.4190 C   0  0  0  0  0  0  0  0  0  0  0  0
  -10.0237   14.7677    9.6831 C   0  0  0  0  0  0  0  0  0  0  0  0
  -11.4672   15.0563    9.2648 C   0  0  0  0  0  0  0  0  0  0  0  0
  -12.4803   15.0761   10.4120 C   0  0  0  0  0  0  0  0  0  0  0  0
  -12.1643   16.0608   11.5397 C   0  0  0  0  0  0  0  0  0  0  0  0
  -12.0661   17.5261   11.1113 C   0  0  0  0  0  0  0  0  0  0  0  0
  -13.3402   18.1066   10.4940 C   0  0  0  0  0  0  0  0  0  0  0  0
  -14.5689   18.0816   11.4046 C   0  0  0  0  0  0  0  0  0  0  0  0
  -14.3934   18.9030   12.6765 C   0  0  0  0  0  0  0  0  0  0  0  0
   -7.6388   10.2254    9.8584 C   0  0  0  0  0  0  0  0  0  0  0  0
   -5.7257   11.3156    8.9487 C   0  0  0  0  0  0  0  0  0  0  0  0
    0.3599   -1.2670   -0.0710 H   0  0  0  0  0  0  0  0  0  0  0  0
    1.3223   -2.5195    0.7055 H   0  0  0  0  0  0  0  0  0  0  0  0
    2.1164   -1.2614   -0.2417 H   0  0  0  0  0  0  0  0  0  0  0  0
    0.5753   -0.7911    2.3548 H   0  0  0  0  0  0  0  0  0  0  0  0
    2.3263   -0.9092    2.2387 H   0  0  0  0  0  0  0  0  0  0  0  0
    1.7326    1.4205    2.3290 H   0  0  0  0  0  0  0  0  0  0  0  0
    2.4015    1.0488    0.7459 H   0  0  0  0  0  0  0  0  0  0  0  0
    0.5233    2.5568    0.5183 H   0  0  0  0  0  0  0  0  0  0  0  0
    0.1705    1.0255   -0.2603 H   0  0  0  0  0  0  0  0  0  0  0  0
   -1.7875    1.8589    0.9109 H   0  0  0  0  0  0  0  0  0  0  0  0
   -1.2620    0.3299    1.5912 H   0  0  0  0  0  0  0  0  0  0  0  0
   -1.9429    1.8335    3.3617 H   0  0  0  0  0  0  0  0  0  0  0  0
   -0.2345    1.4601    3.5047 H   0  0  0  0  0  0  0  0  0  0  0  0
   -0.5647    3.7900    3.9929 H   0  0  0  0  0  0  0  0  0  0  0  0
    0.3655    3.6385    2.5141 H   0  0  0  0  0  0  0  0  0  0  0  0
   -1.2360    5.4243    2.2734 H   0  0  0  0  0  0  0  0  0  0  0  0
   -1.6211    4.1327    1.1516 H   0  0  0  0  0  0  0  0  0  0  0  0
   -3.6451    5.0547    2.1413 H   0  0  0  0  0  0  0  0  0  0  0  0
   -3.4608    3.3575    2.5447 H   0  0  0  0  0  0  0  0  0  0  0  0
   -4.2730    4.5928    4.4672 H   0  0  0  0  0  0  0  0  0  0  0  0
   -2.6968    3.8970    4.7976 H   0  0  0  0  0  0  0  0  0  0  0  0
   -2.7565    6.0980    5.7397 H   0  0  0  0  0  0  0  0  0  0  0  0
   -1.6116    6.0837    4.4125 H   0  0  0  0  0  0  0  0  0  0  0  0
   -2.8561    8.1393    4.3411 H   0  0  0  0  0  0  0  0  0  0  0  0
   -3.2399    7.1779    2.9268 H   0  0  0  0  0  0  0  0  0  0  0  0
   -5.2354    8.2599    3.8178 H   0  0  0  0  0  0  0  0  0  0  0  0
   -5.3854    6.5129    3.8400 H   0  0  0  0  0  0  0  0  0  0  0  0
   -6.3207    7.4626    5.8702 H   0  0  0  0  0  0  0  0  0  0  0  0
   -4.9608    6.4135    6.2284 H   0  0  0  0  0  0  0  0  0  0  0  0
   -4.7844    8.3215    7.6590 H   0  0  0  0  0  0  0  0  0  0  0  0
   -3.4739    8.3632    6.5050 H   0  0  0  0  0  0  0  0  0  0  0  0
   -4.3055   10.5936    6.7752 H   0  0  0  0  0  0  0  0  0  0  0  0
   -4.5935   10.0426    5.1441 H   0  0  0  0  0  0  0  0  0  0  0  0
   -6.5102   11.3251    5.9973 H   0  0  0  0  0  0  0  0  0  0  0  0
   -6.8982    9.7151    5.4470 H   0  0  0  0  0  0  0  0  0  0  0  0
   -8.2024    9.7707    7.2853 H   0  0  0  0  0  0  0  0  0  0  0  0
   -6.7630    8.9704    7.9089 H   0  0  0  0  0  0  0  0  0  0  0  0
   -7.6404   12.8820    9.0975 H   0  0  0  0  0  0  0  0  0  0  0  0
   -7.5414   12.4936    7.3828 H   0  0  0  0  0  0  0  0  0  0  0  0
   -9.7628   12.7996    7.6137 H   0  0  0  0  0  0  0  0  0  0  0  0
   -9.7291   11.0692    7.8354 H   0  0  0  0  0  0  0  0  0  0  0  0
  -11.2467   12.2439    9.3583 H   0  0  0  0  0  0  0  0  0  0  0  0
  -10.0688   11.3208   10.2577 H   0  0  0  0  0  0  0  0  0  0  0  0
  -10.4440   13.4426   11.3162 H   0  0  0  0  0  0  0  0  0  0  0  0
   -8.7878   13.3845   10.7643 H   0  0  0  0  0  0  0  0  0  0  0  0
   -9.6815   15.5688   10.3395 H   0  0  0  0  0  0  0  0  0  0  0  0
   -9.3924   14.7971    8.7910 H   0  0  0  0  0  0  0  0  0  0  0  0
  -11.4816   16.0240    8.7614 H   0  0  0  0  0  0  0  0  0  0  0  0
  -11.7931   14.3137    8.5322 H   0  0  0  0  0  0  0  0  0  0  0  0
  -13.4572   15.3188    9.9915 H   0  0  0  0  0  0  0  0  0  0  0  0
  -12.5631   14.0752   10.8432 H   0  0  0  0  0  0  0  0  0  0  0  0
  -12.9420   15.9634   12.2988 H   0  0  0  0  0  0  0  0  0  0  0  0
  -11.2220   15.7794   12.0164 H   0  0  0  0  0  0  0  0  0  0  0  0
  -11.7960   18.1174   11.9879 H   0  0  0  0  0  0  0  0  0  0  0  0
  -11.2540   17.6402   10.3893 H   0  0  0  0  0  0  0  0  0  0  0  0
  -13.1357   19.1439   10.2174 H   0  0  0  0  0  0  0  0  0  0  0  0
  -13.5761   17.5683    9.5733 H   0  0  0  0  0  0  0  0  0  0  0  0
  -15.4133   18.4844   10.8404 H   0  0  0  0  0  0  0  0  0  0  0  0
  -14.8184   17.0519   11.6675 H   0  0  0  0  0  0  0  0  0  0  0  0
  -14.0970   19.9213   12.4340 H   0  0  0  0  0  0  0  0  0  0  0  0
  -15.3288   18.9427   13.2298 H   0  0  0  0  0  0  0  0  0  0  0  0
  -13.6372   18.4689   13.3257 H   0  0  0  0  0  0  0  0  0  0  0  0
   -6.9542    9.4396   10.1747 H   0  0  0  0  0  0  0  0  0  0  0  0
   -7.7460   10.9414   10.6706 H   0  0  0  0  0  0  0  0  0  0  0  0
   -8.6060    9.7763    9.6476 H   0  0  0  0  0  0  0  0  0  0  0  0
   -5.0869   10.4404    9.0466 H   0  0  0  0  0  0  0  0  0  0  0  0
   -5.3444   11.9493    8.1523 H   0  0  0  0  0  0  0  0  0  0  0  0
   -5.6944   11.8762    9.8819 H   0  0  0  0  0  0  0  0  0  0  0  0
  1  2  1  0  0  0  0
  2  3  1  0  0  0  0
  3  4  1  0  0  0  0
  4  5  1  0  0  0  0
  5  6  1  0  0  0  0
  6  7  1  0  0  0  0
  7  8  1  0  0  0  0
  8  9  1  0  0  0  0
  9 10  1  0  0  0  0
 10 11  1  0  0  0  0
 11 12  1  0  0  0  0
 12 13  1  0  0  0  0
 13 14  1  0  0  0  0
 14 15  1  0  0  0  0
 15 16  1  0  0  0  0
 16 17  1  0  0  0  0
 17 18  1  0  0  0  0
 18 19  1  0  0  0  0
 19 20  1  0  0  0  0
 20 21  1  0  0  0  0
 21 22  1  0  0  0  0
 22 23  1  0  0  0  0
 23 24  1  0  0  0  0
 24 25  1  0  0  0  0
 25 26  1  0  0  0  0
 26 27  1  0  0  0  0
 27 28  1  0  0  0  0
 28 29  1  0  0  0  0
 29 30  1  0  0  0  0
 30 31  1  0  0  0  0
 19 32  1  0  0  0  0
 19 33  1  0  0  0  0
  1 34  1  0  0  0  0
  1 35  1  0  0  0  0
  1 36  1  0  0  0  0
  2 37  1  0  0  0  0
  2 38  1  0  0  0  0
  3 39  1  0  0  0  0
  3 40  1  0  0  0  0
  4 41  1  0  0  0  0
  4 42  1  0  0  0  0
  5 43  1  0  0  0  0
  5 44  1  0  0  0  0
  6 45  1  0  0  0  0
  6 46  1  0  0  0  0
  7 47  1  0  0  0  0
  7 48  1  0  0  0  0
  8 49  1  0  0  0  0
  8 50  1  0  0  0  0
  9 51  1  0  0  0  0
  9 52  1  0  0  0  0
 10 53  1  0  0  0  0
 10 54  1  0  0  0  0
 11 55  1  0  0  0  0
 11 56  1  0  0  0  0
 12 57  1  0  0  0  0
 12 58  1  0  0  0  0
 13 59  1  0  0  0  0
 13 60  1  0  0  0  0
 14 61  1  0  0  0  0
 14 62  1  0  0  0  0
 15 63  1  0  0  0  0
 15 64  1  0  0  0  0
 16 65  1  0  0  0  0
 16 66  1  0  0  0  0
 17 67  1  0  0  0  0
 17 68  1  0  0  0  0
 18 69  1  0  0  0  0
 18 70  1  0  0  0  0
 20 71  1  0  0  0  0
 20 72  1  0  0  0  0
 21 73  1  0  0  0  0
 21 74  1  0  0  0  0
 22 75  1  0  0  0  0
 22 76  1  0  0  0  0
 23 77  1  0  0  0  0
 23 78  1  0  0  0  0
 24 79  1  0  0  0  0
 24 80  1  0  0  0  0
 25 81  1  0  0  0  0
 25 82  1  0  0  0  0
 26 83  1  0  0  0  0
 26 84  1  0  0  0  0
 27 85  1  0  0  0  0
 27 86  1  0  0  0  0
 28 87  1  0  0  0  0
 28 88  1  0  0  0  0
 29 89  1  0  0  0  0
 29 90  1  0  0  0  0
 30 91  1  0  0  0  0
 30 92  1  0  0  0  0
 31 93  1  0  0  0  0
 31 94  1  0  0  0  0
 31 95  1  0  0  0  0
 32 96  1  0  0  0  0
 32 97  1  0  0  0  0
 32 98  1  0  0  0  0
 33 99  1  0  0  0  0
 33100  1  0  0  0  0
 33101  1  0  0  0  0
M  CHG  1   1   1
M  END
