 xtb: 6.7.1 (edcfbbe)
          12202406423D

 30 31  0     0  0            999 V2000
    2.0631   -0.4728   -0.0042 F   0  0  0  0  0  0  0  0  0  0  0  0
    3.0713    0.3600   -0.4207 C   0  0  0  0  0  0  0  0  0  0  0  0
    2.5348    1.7813   -0.5759 C   0  0  0  0  0  0  0  0  0  0  0  0
    1.6813    2.2164    0.6242 C   0  0  0  0  0  0  0  0  0  0  0  0
    2.4349    2.1891    1.8660 N   0  0  0  0  0  0  0  0  0  0  0  0
    3.2020    3.2355    2.2059 C   0  0  0  0  0  0  0  0  0  0  0  0
    3.9561    3.2292    3.3526 C   0  0  0  0  0  0  0  0  0  0  0  0
    3.9485    2.1063    4.1939 C   0  0  0  0  0  0  0  0  0  0  0  0
    3.1425    1.0281    3.8032 C   0  0  0  0  0  0  0  0  0  0  0  0
    2.4010    1.1012    2.6490 C   0  0  0  0  0  0  0  0  0  0  0  0
    4.7411    2.0631    5.4185 C   0  0  0  0  0  0  0  0  0  0  0  0
    5.3510    0.8777    5.8386 C   0  0  0  0  0  0  0  0  0  0  0  0
    6.0994    0.8985    7.0064 C   0  0  0  0  0  0  0  0  0  0  0  0
    6.2500    1.9783    7.7494 N   0  0  0  0  0  0  0  0  0  0  0  0
    5.6698    3.0990    7.3643 C   0  0  0  0  0  0  0  0  0  0  0  0
    4.9129    3.2045    6.2067 C   0  0  0  0  0  0  0  0  0  0  0  0
    3.8614    0.2933    0.3362 H   0  0  0  0  0  0  0  0  0  0  0  0
    3.4428   -0.0280   -1.3720 H   0  0  0  0  0  0  0  0  0  0  0  0
    3.3781    2.4560   -0.7246 H   0  0  0  0  0  0  0  0  0  0  0  0
    1.8950    1.8308   -1.4574 H   0  0  0  0  0  0  0  0  0  0  0  0
    1.3084    3.2282    0.4553 H   0  0  0  0  0  0  0  0  0  0  0  0
    0.8304    1.5383    0.7161 H   0  0  0  0  0  0  0  0  0  0  0  0
    3.1975    4.0857    1.5398 H   0  0  0  0  0  0  0  0  0  0  0  0
    4.5658    4.0860    3.5908 H   0  0  0  0  0  0  0  0  0  0  0  0
    3.0785    0.1430    4.4158 H   0  0  0  0  0  0  0  0  0  0  0  0
    1.7674    0.2841    2.3352 H   0  0  0  0  0  0  0  0  0  0  0  0
    5.2789   -0.0249    5.2526 H   0  0  0  0  0  0  0  0  0  0  0  0
    6.5975    0.0079    7.3629 H   0  0  0  0  0  0  0  0  0  0  0  0
    5.8199    3.9528    8.0102 H   0  0  0  0  0  0  0  0  0  0  0  0
    4.4366    4.1371    5.9487 H   0  0  0  0  0  0  0  0  0  0  0  0
  1  2  1  0  0  0  0
  2  3  1  0  0  0  0
  3  4  1  0  0  0  0
  4  5  1  0  0  0  0
  5  6  4  0  0  0  0
  6  7  2  0  0  0  0
  7  8  4  0  0  0  0
  8  9  4  0  0  0  0
  5 10  4  0  0  0  0
  9 10  4  0  0  0  0
  8 11  1  0  0  0  0
 11 12  4  0  0  0  0
 12 13  4  0  0  0  0
 13 14  4  0  0  0  0
 14 15  4  0  0  0  0
 11 16  4  0  0  0  0
 15 16  4  0  0  0  0
  2 17  1  0  0  0  0
  2 18  1  0  0  0  0
  3 19  1  0  0  0  0
  3 20  1  0  0  0  0
  4 21  1  0  0  0  0
  4 22  1  0  0  0  0
  6 23  1  0  0  0  0
  7 24  1  0  0  0  0
  9 25  1  0  0  0  0
 10 26  1  0  0  0  0
 12 27  1  0  0  0  0
 13 28  1  0  0  0  0
 15 29  1  0  0  0  0
 16 30  1  0  0  0  0
M  CHG  1   1   1
M  END
