101

C          1.40786       -1.29587       -0.15923
C          1.58853       -0.75627        1.25153
C          1.79182        0.76037        1.30256
C          0.64696        1.59627        0.72069
C         -0.71631        1.39031        1.38922
C         -0.77703        1.76701        2.87390
C         -0.43374        3.22735        3.19168
C         -1.29064        4.27156        2.46604
C         -2.79390        4.19300        2.75645
C         -3.18377        4.43666        4.21833
C         -2.79494        5.81286        4.76881
C         -3.44272        7.00288        4.05058
C         -4.97422        7.05608        4.12726
C         -5.56201        7.04658        5.54468
C         -5.02748        8.14111        6.47396
C         -5.43210        9.56602        6.08110
C         -6.89735        9.93395        6.35862
C         -7.36919        9.85014        7.81633
N         -7.09854       11.09175        8.69504
C         -7.75893       12.38726        8.17369
C         -9.27832       12.35367        7.96624
C        -10.17357       12.51964        9.20161
C         -9.87901       13.74075       10.07814
C        -10.18605       15.09070        9.42219
C        -11.67525       15.37089        9.18306
C        -12.56964       15.29145       10.42725
C        -12.13139       16.16524       11.60802
C        -12.11001       17.67095       11.32899
C        -13.46946       18.29027       10.98862
C        -14.55999       18.10722       12.04790
C        -14.19603       18.69569       13.40264
C         -7.57063       10.75149       10.11450
C         -5.59496       11.37311        8.81553
H          0.47672       -0.93920       -0.60937
H          1.36807       -2.38964       -0.14177
H          2.24081       -0.99721       -0.80355
H          0.73173       -1.04876        1.86811
H          2.46755       -1.23693        1.69769
H          1.97101        1.05611        2.34287
H          2.71050        1.01018        0.75678
H          0.92714        2.65477        0.77481
H          0.54618        1.37780       -0.34896
H         -1.46479        1.96967        0.83605
H         -1.02412        0.34388        1.28139
H         -1.78288        1.54198        3.24805
H         -0.10177        1.11781        3.44366
H         -0.51264        3.37646        4.27502
H          0.61929        3.41246        2.94867
H         -0.91697        5.26939        2.72294
H         -1.14024        4.17859        1.38432
H         -3.31089        4.91653        2.11566
H         -3.17610        3.21175        2.45256
H         -4.26619        4.29548        4.31909
H         -2.72824        3.66625        4.85128
H         -3.04744        5.84423        5.83494
H         -1.70608        5.93096        4.72839
H         -3.02759        7.92847        4.46678
H         -3.14467        7.00560        2.99581
H         -5.31649        7.95273        3.59735
H         -5.39508        6.20963        3.57144
H         -6.65348        7.11774        5.47459
H         -5.35965        6.07270        6.00623
H         -5.34944        7.91991        7.49584
H         -3.93372        8.09070        6.50927
H         -4.76383       10.26013        6.59318
H         -5.23562        9.72358        5.01428
H         -7.09952       10.92222        5.93616
H         -7.52317        9.24476        5.77723
H         -8.45349        9.69560        7.83263
H         -6.93037        8.99530        8.33846
H         -7.45859       13.19294        8.84986
H         -7.28220       12.60596        7.21145
H         -9.52057       13.17747        7.28169
H         -9.58067       11.45077        7.42778
H        -11.21654       12.55783        8.86432
H        -10.11917       11.62567        9.82585
H        -10.44850       13.64345       11.00884
H         -8.83016       13.73497       10.39120
H         -9.77118       15.88474       10.05422
H         -9.65443       15.17066        8.46701
H        -11.77231       16.36620        8.73289
H        -12.06152       14.67016        8.43338
H        -13.59498       15.55013       10.13816
H        -12.61914       14.25009       10.76755
H        -12.79044       15.95805       12.45889
H        -11.13174       15.86081       11.93896
H        -11.69139       18.18014       12.20531
H        -11.41480       17.88388       10.50852
H        -13.32312       19.36417       10.81677
H        -13.83098       17.88039       10.03829
H        -15.47369       18.59676       11.68991
H        -14.80569       17.04603       12.16414
H        -13.92675       19.75272       13.31218
H        -15.04732       18.61994       14.08667
H        -13.35730       18.16269       13.86020
H         -6.88251       10.01196       10.53788
H         -7.56199       11.66221       10.71738
H         -8.56740       10.31091       10.06059
H         -5.07794       10.43169        9.02306
H         -5.24537       11.82763        7.88607
H         -5.44103       12.07927        9.63752
