45

O          1.41553       -0.23219        1.16825
C          2.50369       -0.07020        0.62124
C          3.13646        1.27938        0.63968
C          4.14329        1.65082       -0.26008
C          4.72937        2.91622       -0.16405
C          4.31044        3.81236        0.81864
C          3.29627        3.45393        1.70338
C          2.70701        2.19264        1.61304
C          3.25382       -1.22058       -0.04752
N          2.99462       -2.64542        0.54812
C          1.51196       -3.08484        0.53242
C          0.74638       -2.90520       -0.78391
C          0.96235       -3.95754       -1.88039
C          0.88089       -5.39082       -1.41606
C         -0.22686       -5.85654       -0.69225
C         -0.28064       -7.17905       -0.24856
C          0.76092       -8.05629       -0.53928
C          1.84996       -7.61676       -1.28760
C          1.90659       -6.29407       -1.73095
C          3.87294       -3.65153       -0.18113
C          3.43625       -2.64142        2.02265
H          4.48657        0.99645       -1.05532
H          5.51226        3.21341       -0.85979
H          4.76839        4.79741        0.88969
H          2.96283        4.15881        2.46266
H          1.91391        1.93151        2.31246
H          2.99582       -1.26064       -1.10991
H          4.33377       -1.06704        0.05138
H          1.49221       -4.12372        0.87914
H          1.00230       -2.50852        1.31090
H         -0.32122       -2.92610       -0.52384
H          0.90517       -1.90865       -1.20745
H          0.20186       -3.81527       -2.65961
H          1.91896       -3.77287       -2.37862
H         -1.06839       -5.20223       -0.47375
H         -1.14432       -7.53181        0.31121
H          0.71124       -9.08975       -0.20342
H          2.64615       -8.31350       -1.54047
H          2.75431       -5.98619       -2.33873
H          4.92052       -3.40599        0.02074
H          3.64623       -4.65423        0.19032
H          3.69004       -3.57095       -1.25229
H          4.48185       -2.32246        2.06895
H          2.80409       -1.95106        2.58655
H          3.33023       -3.65763        2.41448
