50

O          1.31650        0.83184       -0.40398
N          1.43041        0.00688        0.51082
O          0.82264       -1.06747        0.58907
C          2.35886        0.33481        1.59786
C          2.21476       -0.30777        2.84874
C          3.07421       -0.01533        3.91928
C          4.07878        0.91979        3.66926
C          4.23251        1.53041        2.41393
C          3.36568        1.28186        1.35277
N          5.36065        2.33919        2.51340
C          5.99129        3.12910        1.44006
C          6.96044        2.30842        0.57782
C          6.25680        1.42909       -0.42705
C          6.18883        0.04056       -0.24516
C          5.47967       -0.75538       -1.14721
C          4.83939       -0.17420       -2.23996
C          4.92093        1.20104       -2.44373
C          5.63146        1.99935       -1.54696
C          5.81034        2.32151        3.77772
N          5.05827        1.46909        4.49321
C          5.20911        1.26358        5.94651
C          6.51343        0.56271        6.34215
C          7.74653        1.40651        6.12111
C          7.90966        2.63100        6.78815
C          9.03543        3.42122        6.55238
C         10.01840        2.98837        5.66589
C          9.88158        1.76142        5.02026
C          8.75274        0.97228        5.24664
H          1.41860       -1.03906        3.00289
H          2.96008       -0.49507        4.88396
H          3.48053        1.78114        0.39913
H          5.20303        3.60377        0.84549
H          6.55158        3.93691        1.92700
H          7.62070        2.98996        0.02692
H          7.61027        1.70211        1.22081
H          6.68554       -0.43636        0.59676
H          5.43225       -1.83327       -1.00793
H          4.28910       -0.79439       -2.94479
H          4.43354        1.64944       -3.30734
H          5.68730        3.07002       -1.73486
H          6.63603        2.91518        4.15048
H          5.11516        2.24652        6.42253
H          4.36637        0.66264        6.30359
H          6.47387        0.29634        7.40572
H          6.59617       -0.37901        5.78609
H          7.17436        2.98045        7.51082
H          9.16006        4.36613        7.07805
H         10.90696        3.59462        5.50102
H         10.66919        1.41011        4.35657
H          8.67961        0.00819        4.74622
