 xtb: 6.7.1 (edcfbbe)
          12202406423D

 67 69  0     0  0            999 V2000
    1.4341    0.4542   -0.8404 C   0  0  0  0  0  0  0  0  0  0  0  0
    1.1327   -0.6954   -1.7946 C   0  0  0  0  0  0  0  0  0  0  0  0
    1.4649   -2.0687   -1.2090 C   0  0  0  0  0  0  0  0  0  0  0  0
    0.6621   -2.4513    0.0360 C   0  0  0  0  0  0  0  0  0  0  0  0
   -0.8537   -2.5097   -0.1635 C   0  0  0  0  0  0  0  0  0  0  0  0
   -1.3294   -3.5032   -1.2258 C   0  0  0  0  0  0  0  0  0  0  0  0
   -0.8949   -4.9533   -0.9996 C   0  0  0  0  0  0  0  0  0  0  0  0
   -1.2968   -5.5475    0.3518 C   0  0  0  0  0  0  0  0  0  0  0  0
   -2.8050   -5.6224    0.6014 C   0  0  0  0  0  0  0  0  0  0  0  0
   -3.5404   -6.6468   -0.2667 C   0  0  0  0  0  0  0  0  0  0  0  0
   -3.2527   -8.1023    0.1116 C   0  0  0  0  0  0  0  0  0  0  0  0
   -3.9036   -8.5282    1.4325 C   0  0  0  0  0  0  0  0  0  0  0  0
   -5.3375   -8.6922    1.3114 N   0  0  0  0  0  0  0  0  0  0  0  0
   -6.3095   -7.7539    1.6402 C   0  0  0  0  0  0  0  0  0  0  0  0
   -6.2209   -6.4710    2.1546 C   0  0  0  0  0  0  0  0  0  0  0  0
   -7.4075   -5.7952    2.3729 C   0  0  0  0  0  0  0  0  0  0  0  0
   -8.6414   -6.3762    2.0918 C   0  0  0  0  0  0  0  0  0  0  0  0
   -8.7383   -7.6584    1.5824 C   0  0  0  0  0  0  0  0  0  0  0  0
   -7.5537   -8.3402    1.3601 C   0  0  0  0  0  0  0  0  0  0  0  0
   -7.2955   -9.6136    0.8680 N   0  0  0  0  0  0  0  0  0  0  0  0
   -5.9629   -9.7869    0.8473 C   0  0  0  0  0  0  0  0  0  0  0  0
   -5.3579  -10.9206    0.4737 N   0  0  0  0  0  0  0  0  0  0  0  0
   -8.2764  -10.6107    0.4812 C   0  0  0  0  0  0  0  0  0  0  0  0
   -7.9825  -11.1808   -0.8858 C   0  0  0  0  0  0  0  0  0  0  0  0
   -7.8437  -12.5527   -1.0669 C   0  0  0  0  0  0  0  0  0  0  0  0
   -7.5804  -13.0662   -2.3266 C   0  0  0  0  0  0  0  0  0  0  0  0
   -7.4417  -12.2129   -3.4080 C   0  0  0  0  0  0  0  0  0  0  0  0
   -7.5733  -10.8445   -3.2316 C   0  0  0  0  0  0  0  0  0  0  0  0
   -7.8445  -10.3292   -1.9768 C   0  0  0  0  0  0  0  0  0  0  0  0
    0.7862    0.4225    0.0319 H   0  0  0  0  0  0  0  0  0  0  0  0
    1.2798    1.4078   -1.3399 H   0  0  0  0  0  0  0  0  0  0  0  0
    2.4677    0.4081   -0.5043 H   0  0  0  0  0  0  0  0  0  0  0  0
    0.0821   -0.6594   -2.0884 H   0  0  0  0  0  0  0  0  0  0  0  0
    1.7269   -0.5634   -2.7020 H   0  0  0  0  0  0  0  0  0  0  0  0
    1.3161   -2.8247   -1.9830 H   0  0  0  0  0  0  0  0  0  0  0  0
    2.5249   -2.0840   -0.9428 H   0  0  0  0  0  0  0  0  0  0  0  0
    1.0193   -3.4222    0.3868 H   0  0  0  0  0  0  0  0  0  0  0  0
    0.8718   -1.7314    0.8291 H   0  0  0  0  0  0  0  0  0  0  0  0
   -1.3163   -2.7547    0.7958 H   0  0  0  0  0  0  0  0  0  0  0  0
   -1.2154   -1.5186   -0.4430 H   0  0  0  0  0  0  0  0  0  0  0  0
   -2.4199   -3.4529   -1.2789 H   0  0  0  0  0  0  0  0  0  0  0  0
   -0.9526   -3.1894   -2.2007 H   0  0  0  0  0  0  0  0  0  0  0  0
   -1.3063   -5.5642   -1.8069 H   0  0  0  0  0  0  0  0  0  0  0  0
    0.1914   -5.0136   -1.0803 H   0  0  0  0  0  0  0  0  0  0  0  0
   -0.8618   -6.5467    0.4310 H   0  0  0  0  0  0  0  0  0  0  0  0
   -0.8518   -4.9464    1.1454 H   0  0  0  0  0  0  0  0  0  0  0  0
   -2.9620   -5.8506    1.6586 H   0  0  0  0  0  0  0  0  0  0  0  0
   -3.2418   -4.6406    0.4185 H   0  0  0  0  0  0  0  0  0  0  0  0
   -4.6167   -6.4660   -0.2072 H   0  0  0  0  0  0  0  0  0  0  0  0
   -3.2471   -6.4979   -1.3058 H   0  0  0  0  0  0  0  0  0  0  0  0
   -3.6061   -8.7564   -0.6899 H   0  0  0  0  0  0  0  0  0  0  0  0
   -2.1762   -8.2454    0.2030 H   0  0  0  0  0  0  0  0  0  0  0  0
   -3.4771   -9.4716    1.7848 H   0  0  0  0  0  0  0  0  0  0  0  0
   -3.7230   -7.7761    2.2005 H   0  0  0  0  0  0  0  0  0  0  0  0
   -5.2732   -6.0081    2.3724 H   0  0  0  0  0  0  0  0  0  0  0  0
   -7.3761   -4.7936    2.7704 H   0  0  0  0  0  0  0  0  0  0  0  0
   -9.5426   -5.8143    2.2766 H   0  0  0  0  0  0  0  0  0  0  0  0
   -9.6993   -8.0987    1.3729 H   0  0  0  0  0  0  0  0  0  0  0  0
   -4.3591  -10.9371    0.3587 H   0  0  0  0  0  0  0  0  0  0  0  0
   -5.9012  -11.6210   -0.0119 H   0  0  0  0  0  0  0  0  0  0  0  0
   -8.2987  -11.4081    1.2319 H   0  0  0  0  0  0  0  0  0  0  0  0
   -9.2511  -10.1187    0.4774 H   0  0  0  0  0  0  0  0  0  0  0  0
   -7.9645  -13.2222   -0.2268 H   0  0  0  0  0  0  0  0  0  0  0  0
   -7.4872  -14.1324   -2.4605 H   0  0  0  0  0  0  0  0  0  0  0  0
   -7.2390  -12.6134   -4.3886 H   0  0  0  0  0  0  0  0  0  0  0  0
   -7.4742  -10.1784   -4.0743 H   0  0  0  0  0  0  0  0  0  0  0  0
   -7.9600   -9.2630   -1.8424 H   0  0  0  0  0  0  0  0  0  0  0  0
  1  2  1  0  0  0  0
  2  3  1  0  0  0  0
  3  4  1  0  0  0  0
  4  5  1  0  0  0  0
  5  6  1  0  0  0  0
  6  7  1  0  0  0  0
  7  8  1  0  0  0  0
  8  9  1  0  0  0  0
  9 10  1  0  0  0  0
 10 11  1  0  0  0  0
 11 12  1  0  0  0  0
 12 13  1  0  0  0  0
 13 14  1  0  0  0  0
 14 15  4  0  0  0  0
 15 16  4  0  0  0  0
 16 17  4  0  0  0  0
 17 18  4  0  0  0  0
 14 19  4  0  0  0  0
 18 19  4  0  0  0  0
 19 20  1  0  0  0  0
 13 21  4  0  0  0  0
 20 21  4  0  0  0  0
 21 22  4  0  0  0  0
 20 23  1  0  0  0  0
 23 24  1  0  0  0  0
 24 25  4  0  0  0  0
 25 26  4  0  0  0  0
 26 27  4  0  0  0  0
 27 28  4  0  0  0  0
 24 29  4  0  0  0  0
 28 29  4  0  0  0  0
  1 30  1  0  0  0  0
  1 31  1  0  0  0  0
  1 32  1  0  0  0  0
  2 33  1  0  0  0  0
  2 34  1  0  0  0  0
  3 35  1  0  0  0  0
  3 36  1  0  0  0  0
  4 37  1  0  0  0  0
  4 38  1  0  0  0  0
  5 39  1  0  0  0  0
  5 40  1  0  0  0  0
  6 41  1  0  0  0  0
  6 42  1  0  0  0  0
  7 43  1  0  0  0  0
  7 44  1  0  0  0  0
  8 45  1  0  0  0  0
  8 46  1  0  0  0  0
  9 47  1  0  0  0  0
  9 48  1  0  0  0  0
 10 49  1  0  0  0  0
 10 50  1  0  0  0  0
 11 51  1  0  0  0  0
 11 52  1  0  0  0  0
 12 53  1  0  0  0  0
 12 54  1  0  0  0  0
 15 55  1  0  0  0  0
 16 56  1  0  0  0  0
 17 57  1  0  0  0  0
 18 58  1  0  0  0  0
 22 59  1  0  0  0  0
 22 60  1  0  0  0  0
 23 61  1  0  0  0  0
 23 62  1  0  0  0  0
 25 63  1  0  0  0  0
 26 64  1  0  0  0  0
 27 65  1  0  0  0  0
 28 66  1  0  0  0  0
 29 67  1  0  0  0  0
M  CHG  1   1   1
M  END
