36

C          1.01897       -0.07996       -0.05698
N          0.52897        0.35718        1.25820
C          0.08231       -0.41410        2.20974
C         -0.16373        0.34452        3.30036
N          0.14948        1.63637        2.97404
C          0.58463        1.62125        1.69882
C          0.03350        2.81362        3.84670
C          1.40112        3.45466        4.01718
C          1.93358        3.88130        2.65892
C          0.97847        4.88420        2.03252
C          0.85854        6.10149        2.93487
C          2.22617        6.74253        3.10535
S          2.86021        7.25057        1.48794
F          4.36185        7.46013        1.95351
F          2.59420        8.74624        1.90570
F          3.30319        7.69722        0.06601
F          3.25395        5.76244        1.13437
F          2.52108        6.79490        2.96314
F          2.12122        7.80766        3.89490
F          3.06189        5.86500        3.65344
F          0.02282        6.97902        2.38677
F          0.39264        5.72818        4.12334
H          0.66230        0.59001       -0.81119
H          0.66231       -1.06811       -0.26008
H          2.08897       -0.07996       -0.05698
H         -0.06488       -1.47155        2.13879
H         -0.53423       -0.00020        4.24312
H          0.91621        2.46939        1.13703
H         -0.63885        3.51961        3.40575
H         -0.34132        2.51329        4.80284
H          1.31670        4.31157        4.65238
H          2.07347        2.74868        4.45813
H          2.89632        4.33256        2.77893
H          2.01800        3.02440        2.02372
H          1.35329        5.18453        1.07638
H          0.01573        4.43294        1.91251
