67

C          1.19374        0.65601       -0.27009
C          1.20761       -0.38883       -1.37545
C          1.62876       -1.78061       -0.89592
C          0.73968       -2.40286        0.18581
C         -0.73948       -2.54515       -0.18556
C         -1.02592       -3.44556       -1.39276
C         -0.59089       -4.91101       -1.24787
C         -1.08267       -5.62966        0.01492
C         -2.60674       -5.68645        0.16372
C         -3.27103       -6.81891       -0.63145
C         -3.18034       -8.20152        0.03119
C         -3.88286       -8.33271        1.38814
N         -5.31828       -8.60461        1.26815
C         -6.31254       -7.63604        1.12323
C         -6.25995       -6.24367        1.13698
C         -7.46580       -5.57241        0.90552
C         -8.66587       -6.27039        0.68336
C         -8.71697       -7.67093        0.69792
C         -7.51171       -8.33079        0.93174
N         -7.20044       -9.68479        1.06067
C         -5.90533       -9.79701        1.32265
N         -5.28378      -10.93341        1.64093
C         -8.16098      -10.77956        0.96981
C         -8.14371      -11.37250       -0.41619
C         -7.23053      -12.38004       -0.76691
C         -7.23439      -12.93454       -2.04850
C         -8.15392      -12.49496       -2.99566
C         -9.06629      -11.49669       -2.66516
C         -9.05869      -10.93454       -1.38645
H          0.42949        0.43676        0.48131
H          0.97187        1.64294       -0.68868
H          2.16575        0.71120        0.23011
H          0.22243       -0.43008       -1.85246
H          1.91135       -0.06432       -2.15143
H          1.67283       -2.45126       -1.76200
H          2.65337       -1.72404       -0.50700
H          1.14881       -3.38549        0.44852
H          0.81117       -1.80217        1.10055
H         -1.28328       -2.92096        0.68913
H         -1.16419       -1.55380       -0.38177
H         -2.10169       -3.40852       -1.60117
H         -0.54679       -3.02686       -2.28557
H         -0.92931       -5.46144       -2.13386
H          0.50476       -4.95872       -1.26548
H         -0.66502       -6.64292        0.02948
H         -0.66407       -5.12759        0.89483
H         -2.83853       -5.78023        1.22811
H         -3.05474       -4.73557       -0.14082
H         -4.32343       -6.57045       -0.79780
H         -2.82287       -6.87545       -1.63067
H         -3.59457       -8.94533       -0.66098
H         -2.12193       -8.45463        0.16118
H         -3.42310       -9.16239        1.93429
H         -3.74346       -7.46035        2.03048
H         -5.33884       -5.70555        1.31446
H         -7.47495       -4.48202        0.89523
H         -9.58014       -5.70427        0.50263
H         -9.64519       -8.20377        0.54034
H         -4.29386      -10.95883        1.82334
H         -5.79779      -11.78936        1.76842
H         -7.92203      -11.54124        1.71992
H         -9.16422      -10.41987        1.22447
H         -6.51311      -12.76808       -0.05248
H         -6.52661      -13.71883       -2.30853
H         -8.16404      -12.93515       -3.99038
H         -9.78963      -11.16125       -3.40544
H         -9.78936      -10.16239       -1.15688
