21

C          1.25796       -0.34706       -0.15150
C          0.32999       -0.89249        0.91534
N          1.01499       -0.85824        2.22818
C          0.94548        0.25731        2.99107
C          1.57573        0.30978        4.22938
C          2.27542       -0.80114        4.69741
C          2.34562       -1.93393        3.88823
C          1.70159       -1.94285        2.65563
C          2.99120       -0.75401        6.01683
H          1.53774        0.68964        0.06177
H          0.77019       -0.37484       -1.13046
H          2.17968       -0.93474       -0.21006
H         -0.58603       -0.29751        0.99489
H          0.04354       -1.92838        0.70505
H          0.38938        1.10370        2.59807
H          1.51745        1.21888        4.82584
H          2.89964       -2.81316        4.21298
H          1.73444       -2.81032        2.00244
H          3.99463       -0.33840        5.88310
H          2.44230       -0.13506        6.73433
H          3.07820       -1.75558        6.45091
