 xtb: 6.7.1 (edcfbbe)
          12202406423D

 24 24  0     0  0            999 V2000
    1.1488   -0.4893    0.4824 Cl  0  0  0  0  0  0  0  0  0  0  0  0
    2.8561   -0.1516    0.0241 C   0  0  0  0  0  0  0  0  0  0  0  0
    3.1423   -0.4642   -1.4371 C   0  0  0  0  0  0  0  0  0  0  0  0
    2.5643    0.4837   -2.4296 N   0  0  0  0  0  0  0  0  0  0  0  0
    1.0812    0.4414   -2.5420 C   0  0  0  0  0  0  0  0  0  0  0  0
    0.6466    1.2125   -3.7816 C   0  0  0  0  0  0  0  0  0  0  0  0
    1.1227    2.6602   -3.7003 C   0  0  0  0  0  0  0  0  0  0  0  0
    2.6340    2.6993   -3.4914 C   0  0  0  0  0  0  0  0  0  0  0  0
    3.0158    1.8892   -2.2579 C   0  0  0  0  0  0  0  0  0  0  0  0
    3.0706    0.8828    0.2838 H   0  0  0  0  0  0  0  0  0  0  0  0
    3.4735   -0.8051    0.6405 H   0  0  0  0  0  0  0  0  0  0  0  0
    4.2278   -0.4616   -1.5734 H   0  0  0  0  0  0  0  0  0  0  0  0
    2.7659   -1.4638   -1.6670 H   0  0  0  0  0  0  0  0  0  0  0  0
    2.9163    0.1862   -3.3482 H   0  0  0  0  0  0  0  0  0  0  0  0
    0.6552    0.8854   -1.6428 H   0  0  0  0  0  0  0  0  0  0  0  0
    0.7617   -0.5997   -2.5977 H   0  0  0  0  0  0  0  0  0  0  0  0
   -0.4397    1.1782   -3.8529 H   0  0  0  0  0  0  0  0  0  0  0  0
    1.0486    0.7363   -4.6793 H   0  0  0  0  0  0  0  0  0  0  0  0
    0.8616    3.1891   -4.6152 H   0  0  0  0  0  0  0  0  0  0  0  0
    0.6236    3.1655   -2.8727 H   0  0  0  0  0  0  0  0  0  0  0  0
    3.1448    2.3016   -4.3715 H   0  0  0  0  0  0  0  0  0  0  0  0
    2.9691    3.7270   -3.3565 H   0  0  0  0  0  0  0  0  0  0  0  0
    4.0965    1.8995   -2.1055 H   0  0  0  0  0  0  0  0  0  0  0  0
    2.5254    2.3045   -1.3772 H   0  0  0  0  0  0  0  0  0  0  0  0
  1  2  1  0  0  0  0
  2  3  1  0  0  0  0
  3  4  1  0  0  0  0
  4  5  1  0  0  0  0
  5  6  1  0  0  0  0
  6  7  1  0  0  0  0
  7  8  1  0  0  0  0
  4  9  1  0  0  0  0
  8  9  1  0  0  0  0
  2 10  1  0  0  0  0
  2 11  1  0  0  0  0
  3 12  1  0  0  0  0
  3 13  1  0  0  0  0
  4 14  1  0  0  0  0
  5 15  1  0  0  0  0
  5 16  1  0  0  0  0
  6 17  1  0  0  0  0
  6 18  1  0  0  0  0
  7 19  1  0  0  0  0
  7 20  1  0  0  0  0
  8 21  1  0  0  0  0
  8 22  1  0  0  0  0
  9 23  1  0  0  0  0
  9 24  1  0  0  0  0
M  CHG  1   1   1
M  END
