 xtb: 6.7.1 (edcfbbe)
          12202406423D

 44 46  0     0  0            999 V2000
   -0.8220   -2.6784   -2.5998 Br  0  0  0  0  0  0  0  0  0  0  0  0
    0.6405   -1.7220   -1.8687 C   0  0  0  0  0  0  0  0  0  0  0  0
    0.5461   -0.3472   -1.6834 C   0  0  0  0  0  0  0  0  0  0  0  0
    1.6133    0.3327   -1.1401 C   0  0  0  0  0  0  0  0  0  0  0  0
    2.7856   -0.3399   -0.7682 C   0  0  0  0  0  0  0  0  0  0  0  0
    2.8661   -1.7202   -0.9782 C   0  0  0  0  0  0  0  0  0  0  0  0
    1.8014   -2.4063   -1.5233 C   0  0  0  0  0  0  0  0  0  0  0  0
    3.8616    0.4699   -0.1870 C   0  0  0  0  0  0  0  0  0  0  0  0
    3.8408    1.6754   -0.1487 O   0  0  0  0  0  0  0  0  0  0  0  0
    5.0729   -0.2708    0.4366 C   0  0  0  0  0  0  0  0  0  0  0  0
    4.6996   -1.1277    1.5334 N   0  0  0  0  0  0  0  0  0  0  0  0
    4.9971   -2.4580    1.6399 C   0  0  0  0  0  0  0  0  0  0  0  0
    4.4756   -2.8931    2.8131 C   0  0  0  0  0  0  0  0  0  0  0  0
    3.8620   -1.8276    3.4075 N   0  0  0  0  0  0  0  0  0  0  0  0
    4.0177   -0.7521    2.6261 C   0  0  0  0  0  0  0  0  0  0  0  0
    3.5039    0.6065    2.8861 C   0  0  0  0  0  0  0  0  0  0  0  0
    3.2766   -1.8747    4.7278 C   0  0  0  0  0  0  0  0  0  0  0  0
    4.3736   -1.7498    5.8011 C   0  0  0  0  0  0  0  0  0  0  0  0
    5.1089   -0.4450    5.6578 C   0  0  0  0  0  0  0  0  0  0  0  0
    6.2243   -0.3504    4.8339 C   0  0  0  0  0  0  0  0  0  0  0  0
    6.8627    0.8650    4.6530 C   0  0  0  0  0  0  0  0  0  0  0  0
    6.3914    1.9986    5.2931 C   0  0  0  0  0  0  0  0  0  0  0  0
    5.2847    1.9119    6.1220 C   0  0  0  0  0  0  0  0  0  0  0  0
    4.6448    0.6975    6.2996 C   0  0  0  0  0  0  0  0  0  0  0  0
   -0.3529    0.1767   -1.9670 H   0  0  0  0  0  0  0  0  0  0  0  0
    1.5652    1.4008   -0.9912 H   0  0  0  0  0  0  0  0  0  0  0  0
    3.7628   -2.2712   -0.7451 H   0  0  0  0  0  0  0  0  0  0  0  0
    1.8654   -3.4699   -1.6915 H   0  0  0  0  0  0  0  0  0  0  0  0
    5.5729   -0.8668   -0.3286 H   0  0  0  0  0  0  0  0  0  0  0  0
    5.7690    0.4989    0.7877 H   0  0  0  0  0  0  0  0  0  0  0  0
    5.5617   -2.9862    0.8993 H   0  0  0  0  0  0  0  0  0  0  0  0
    4.4914   -3.8665    3.2583 H   0  0  0  0  0  0  0  0  0  0  0  0
    4.1090    1.3520    2.3762 H   0  0  0  0  0  0  0  0  0  0  0  0
    2.4806    0.7061    2.5193 H   0  0  0  0  0  0  0  0  0  0  0  0
    3.5141    0.8290    3.9503 H   0  0  0  0  0  0  0  0  0  0  0  0
    2.5545   -1.0638    4.8275 H   0  0  0  0  0  0  0  0  0  0  0  0
    2.7543   -2.8275    4.8355 H   0  0  0  0  0  0  0  0  0  0  0  0
    3.8959   -1.8105    6.7786 H   0  0  0  0  0  0  0  0  0  0  0  0
    5.0683   -2.5858    5.7061 H   0  0  0  0  0  0  0  0  0  0  0  0
    6.6133   -1.2376    4.3516 H   0  0  0  0  0  0  0  0  0  0  0  0
    7.7360    0.9242    4.0213 H   0  0  0  0  0  0  0  0  0  0  0  0
    6.8927    2.9440    5.1580 H   0  0  0  0  0  0  0  0  0  0  0  0
    4.9230    2.7891    6.6353 H   0  0  0  0  0  0  0  0  0  0  0  0
    3.7863    0.6314    6.9525 H   0  0  0  0  0  0  0  0  0  0  0  0
  1  2  1  0  0  0  0
  2  3  4  0  0  0  0
  3  4  4  0  0  0  0
  4  5  4  0  0  0  0
  5  6  4  0  0  0  0
  2  7  4  0  0  0  0
  6  7  4  0  0  0  0
  5  8  1  0  0  0  0
  8  9  2  0  0  0  0
  8 10  1  0  0  0  0
 10 11  1  0  0  0  0
 11 12  1  0  0  0  0
 12 13  2  0  0  0  0
 13 14  4  0  0  0  0
 11 15  4  0  0  0  0
 14 15  4  0  0  0  0
 15 16  1  0  0  0  0
 14 17  1  0  0  0  0
 17 18  1  0  0  0  0
 18 19  1  0  0  0  0
 19 20  4  0  0  0  0
 20 21  4  0  0  0  0
 21 22  4  0  0  0  0
 22 23  4  0  0  0  0
 19 24  4  0  0  0  0
 23 24  4  0  0  0  0
  3 25  1  0  0  0  0
  4 26  1  0  0  0  0
  6 27  1  0  0  0  0
  7 28  1  0  0  0  0
 10 29  1  0  0  0  0
 10 30  1  0  0  0  0
 12 31  1  0  0  0  0
 13 32  1  0  0  0  0
 16 33  1  0  0  0  0
 16 34  1  0  0  0  0
 16 35  1  0  0  0  0
 17 36  1  0  0  0  0
 17 37  1  0  0  0  0
 18 38  1  0  0  0  0
 18 39  1  0  0  0  0
 20 40  1  0  0  0  0
 21 41  1  0  0  0  0
 22 42  1  0  0  0  0
 23 43  1  0  0  0  0
 24 44  1  0  0  0  0
M  CHG  1   1   1
M  END
