 xtb: 6.7.1 (edcfbbe)
          12202406433D

  9  9  0     0  0            999 V2000
    1.0195    0.2949   -0.1629 C   0  0  0  0  0  0  0  0  0  0  0  0
    0.7013   -0.9077   -0.0722 N   0  0  0  0  0  0  0  0  0  0  0  0
   -0.6810   -0.9597    0.1293 C   0  0  0  0  0  0  0  0  0  0  0  0
   -1.2448    0.1810    0.1684 N   0  0  0  0  0  0  0  0  0  0  0  0
   -0.2305    1.1475   -0.0134 N   0  0  0  0  0  0  0  0  0  0  0  0
    1.9893    0.7272   -0.3206 H   0  0  0  0  0  0  0  0  0  0  0  0
   -1.2063   -1.8922    0.2401 H   0  0  0  0  0  0  0  0  0  0  0  0
   -0.4364    1.7363   -0.8417 H   0  0  0  0  0  0  0  0  0  0  0  0
   -0.2015    1.7973    0.7943 H   0  0  0  0  0  0  0  0  0  0  0  0
  1  2  2  0  0  0  0
  2  3  1  0  0  0  0
  3  4  2  0  0  0  0
  1  5  1  0  0  0  0
  4  5  1  0  0  0  0
  1  6  1  0  0  0  0
  3  7  1  0  0  0  0
  5  8  1  0  0  0  0
  5  9  1  0  0  0  0
M  CHG  1   1   1
M  END
