 xtb: 6.7.1 (edcfbbe)
          12202406433D

 54 56  0     0  0            999 V2000
   -0.6454    0.8738   -1.7086 C   0  0  0  0  0  0  0  0  0  0  0  0
    0.0878    0.1688   -2.6894 O   0  0  0  0  0  0  0  0  0  0  0  0
   -0.5867   -0.3288   -3.7708 C   0  0  0  0  0  0  0  0  0  0  0  0
   -1.9669   -0.3076   -3.9234 C   0  0  0  0  0  0  0  0  0  0  0  0
   -2.5464   -0.8397   -5.0630 C   0  0  0  0  0  0  0  0  0  0  0  0
   -1.7646   -1.3945   -6.0593 C   0  0  0  0  0  0  0  0  0  0  0  0
   -0.3891   -1.4215   -5.9092 C   0  0  0  0  0  0  0  0  0  0  0  0
    0.2095   -0.8944   -4.7775 C   0  0  0  0  0  0  0  0  0  0  0  0
    1.7079   -0.9070   -4.6011 C   0  0  0  0  0  0  0  0  0  0  0  0
    2.0840   -1.7514   -3.4868 N   0  0  0  0  0  0  0  0  0  0  0  0
    2.4678   -1.3355   -2.2856 C   0  0  0  0  0  0  0  0  0  0  0  0
    2.6791   -2.3567   -1.4633 N   0  0  0  0  0  0  0  0  0  0  0  0
    2.4064   -3.5162   -2.1612 C   0  0  0  0  0  0  0  0  0  0  0  0
    2.0155   -3.1277   -3.4564 C   0  0  0  0  0  0  0  0  0  0  0  0
    1.6597   -4.0684   -4.4153 C   0  0  0  0  0  0  0  0  0  0  0  0
    1.7107   -5.3941   -4.0382 C   0  0  0  0  0  0  0  0  0  0  0  0
    2.1026   -5.7804   -2.7529 C   0  0  0  0  0  0  0  0  0  0  0  0
    2.4560   -4.8554   -1.7926 C   0  0  0  0  0  0  0  0  0  0  0  0
    3.1111   -2.3258   -0.0801 C   0  0  0  0  0  0  0  0  0  0  0  0
    3.4414   -0.9207    0.4147 C   0  0  0  0  0  0  0  0  0  0  0  0
    4.7248   -0.3566   -0.1882 C   0  0  0  0  0  0  0  0  0  0  0  0
    4.9689    1.5259    0.1692 Si  0  0  0  0  0  0  0  0  0  0  0  0
    3.4477    2.4425   -0.5414 C   0  0  0  0  0  0  0  0  0  0  0  0
    5.0775    1.7876    2.0486 C   0  0  0  0  0  0  0  0  0  0  0  0
    6.5481    2.0828   -0.7288 C   0  0  0  0  0  0  0  0  0  0  0  0
   -1.3376    0.2152   -1.1768 H   0  0  0  0  0  0  0  0  0  0  0  0
   -1.1964    1.7093   -2.1460 H   0  0  0  0  0  0  0  0  0  0  0  0
    0.0937    1.2614   -1.0091 H   0  0  0  0  0  0  0  0  0  0  0  0
   -2.5986    0.1228   -3.1639 H   0  0  0  0  0  0  0  0  0  0  0  0
   -3.6195   -0.8132   -5.1691 H   0  0  0  0  0  0  0  0  0  0  0  0
   -2.2197   -1.7999   -6.9482 H   0  0  0  0  0  0  0  0  0  0  0  0
    0.2286   -1.8379   -6.6913 H   0  0  0  0  0  0  0  0  0  0  0  0
    2.1920   -1.2828   -5.5053 H   0  0  0  0  0  0  0  0  0  0  0  0
    2.0679    0.1027   -4.3894 H   0  0  0  0  0  0  0  0  0  0  0  0
    2.5805   -0.3007   -2.0284 H   0  0  0  0  0  0  0  0  0  0  0  0
    1.3498   -3.7764   -5.4042 H   0  0  0  0  0  0  0  0  0  0  0  0
    1.4403   -6.1560   -4.7516 H   0  0  0  0  0  0  0  0  0  0  0  0
    2.1264   -6.8302   -2.5079 H   0  0  0  0  0  0  0  0  0  0  0  0
    2.7547   -5.1593   -0.8029 H   0  0  0  0  0  0  0  0  0  0  0  0
    2.3105   -2.7635    0.5258 H   0  0  0  0  0  0  0  0  0  0  0  0
    3.9938   -2.9676    0.0072 H   0  0  0  0  0  0  0  0  0  0  0  0
    2.5928   -0.2641    0.2188 H   0  0  0  0  0  0  0  0  0  0  0  0
    3.5582   -0.9728    1.4968 H   0  0  0  0  0  0  0  0  0  0  0  0
    5.5708   -0.9133    0.2134 H   0  0  0  0  0  0  0  0  0  0  0  0
    4.7431   -0.5240   -1.2661 H   0  0  0  0  0  0  0  0  0  0  0  0
    2.5343    2.1913   -0.0097 H   0  0  0  0  0  0  0  0  0  0  0  0
    3.5815    3.5151   -0.4456 H   0  0  0  0  0  0  0  0  0  0  0  0
    3.2920    2.2358   -1.5973 H   0  0  0  0  0  0  0  0  0  0  0  0
    5.8899    1.2130    2.4834 H   0  0  0  0  0  0  0  0  0  0  0  0
    5.2592    2.8318    2.2828 H   0  0  0  0  0  0  0  0  0  0  0  0
    4.1611    1.4981    2.5546 H   0  0  0  0  0  0  0  0  0  0  0  0
    7.4188    1.5416   -0.3724 H   0  0  0  0  0  0  0  0  0  0  0  0
    6.4839    1.9294   -1.8020 H   0  0  0  0  0  0  0  0  0  0  0  0
    6.7334    3.1389   -0.5628 H   0  0  0  0  0  0  0  0  0  0  0  0
  1  2  1  0  0  0  0
  2  3  1  0  0  0  0
  3  4  4  0  0  0  0
  4  5  4  0  0  0  0
  5  6  4  0  0  0  0
  6  7  4  0  0  0  0
  3  8  4  0  0  0  0
  7  8  4  0  0  0  0
  8  9  1  0  0  0  0
  9 10  1  0  0  0  0
 10 11  4  0  0  0  0
 11 12  4  0  0  0  0
 12 13  1  0  0  0  0
 10 14  1  0  0  0  0
 13 14  4  0  0  0  0
 14 15  4  0  0  0  0
 15 16  4  0  0  0  0
 16 17  4  0  0  0  0
 13 18  4  0  0  0  0
 17 18  4  0  0  0  0
 12 19  1  0  0  0  0
 19 20  1  0  0  0  0
 20 21  1  0  0  0  0
 21 22  1  0  0  0  0
 22 23  1  0  0  0  0
 22 24  1  0  0  0  0
 22 25  1  0  0  0  0
  1 26  1  0  0  0  0
  1 27  1  0  0  0  0
  1 28  1  0  0  0  0
  4 29  1  0  0  0  0
  5 30  1  0  0  0  0
  6 31  1  0  0  0  0
  7 32  1  0  0  0  0
  9 33  1  0  0  0  0
  9 34  1  0  0  0  0
 11 35  1  0  0  0  0
 15 36  1  0  0  0  0
 16 37  1  0  0  0  0
 17 38  1  0  0  0  0
 18 39  1  0  0  0  0
 19 40  1  0  0  0  0
 19 41  1  0  0  0  0
 20 42  1  0  0  0  0
 20 43  1  0  0  0  0
 21 44  1  0  0  0  0
 21 45  1  0  0  0  0
 23 46  1  0  0  0  0
 23 47  1  0  0  0  0
 23 48  1  0  0  0  0
 24 49  1  0  0  0  0
 24 50  1  0  0  0  0
 24 51  1  0  0  0  0
 25 52  1  0  0  0  0
 25 53  1  0  0  0  0
 25 54  1  0  0  0  0
M  CHG  1   1   1
M  END
