 xtb: 6.7.1 (edcfbbe)
          12202406433D

 48 48  0     0  0            999 V2000
    1.4414   -0.4730   -0.7706 C   0  0  0  0  0  0  0  0  0  0  0  0
    0.7652   -1.7774   -1.1755 C   0  0  0  0  0  0  0  0  0  0  0  0
    0.9783   -2.9078   -0.1665 C   0  0  0  0  0  0  0  0  0  0  0  0
    0.4453   -2.6202    1.2389 C   0  0  0  0  0  0  0  0  0  0  0  0
   -1.0525   -2.3172    1.3059 C   0  0  0  0  0  0  0  0  0  0  0  0
   -1.9597   -3.4354    0.7880 C   0  0  0  0  0  0  0  0  0  0  0  0
   -1.7185   -4.7948    1.4489 C   0  0  0  0  0  0  0  0  0  0  0  0
   -1.7037   -4.7130    2.8880 N   0  0  0  0  0  0  0  0  0  0  0  0
   -0.7907   -5.3692    3.5929 N   0  0  0  0  0  0  0  0  0  0  0  0
   -0.9972   -5.0678    4.8341 C   0  0  0  0  0  0  0  0  0  0  0  0
   -2.0490   -4.2074    4.9470 N   0  0  0  0  0  0  0  0  0  0  0  0
   -2.4751   -4.0033    3.6911 C   0  0  0  0  0  0  0  0  0  0  0  0
   -2.5419   -3.5850    6.1567 C   0  0  0  0  0  0  0  0  0  0  0  0
   -1.4991   -2.6622    6.8008 C   0  0  0  0  0  0  0  0  0  0  0  0
   -0.9441   -1.5568    5.8977 C   0  0  0  0  0  0  0  0  0  0  0  0
   -1.9391   -0.5110    5.2989 C   0  0  0  0  0  0  0  0  0  0  0  0
   -2.8054    0.2970    6.3078 C   0  0  0  0  0  0  0  0  0  0  0  0
   -2.0115    1.1171    7.3751 C   0  0  0  0  0  0  0  0  0  0  0  0
   -0.9730    1.7367    6.8432 F   0  0  0  0  0  0  0  0  0  0  0  0
   -2.7989    2.0018    7.9511 F   0  0  0  0  0  0  0  0  0  0  0  0
   -1.5700    0.2716    8.3114 F   0  0  0  0  0  0  0  0  0  0  0  0
   -3.6112    1.1104    5.6206 F   0  0  0  0  0  0  0  0  0  0  0  0
   -3.5960   -0.5883    6.9639 F   0  0  0  0  0  0  0  0  0  0  0  0
   -1.2666    0.3290    4.5073 F   0  0  0  0  0  0  0  0  0  0  0  0
   -2.8017   -1.1886    4.4909 F   0  0  0  0  0  0  0  0  0  0  0  0
    0.0160   -0.8862    6.5561 F   0  0  0  0  0  0  0  0  0  0  0  0
   -0.3311   -2.1263    4.8203 F   0  0  0  0  0  0  0  0  0  0  0  0
    0.9811   -0.0431    0.1157 H   0  0  0  0  0  0  0  0  0  0  0  0
    1.3613    0.2536   -1.5748 H   0  0  0  0  0  0  0  0  0  0  0  0
    2.4964   -0.6390   -0.5661 H   0  0  0  0  0  0  0  0  0  0  0  0
   -0.3017   -1.6033   -1.3289 H   0  0  0  0  0  0  0  0  0  0  0  0
    1.1777   -2.1037   -2.1322 H   0  0  0  0  0  0  0  0  0  0  0  0
    0.5225   -3.8196   -0.5597 H   0  0  0  0  0  0  0  0  0  0  0  0
    2.0502   -3.0962   -0.0812 H   0  0  0  0  0  0  0  0  0  0  0  0
    0.6844   -3.4684    1.8857 H   0  0  0  0  0  0  0  0  0  0  0  0
    0.9752   -1.7594    1.6467 H   0  0  0  0  0  0  0  0  0  0  0  0
   -1.3094   -2.0782    2.3411 H   0  0  0  0  0  0  0  0  0  0  0  0
   -1.2620   -1.4233    0.7197 H   0  0  0  0  0  0  0  0  0  0  0  0
   -3.0024   -3.1382    0.9154 H   0  0  0  0  0  0  0  0  0  0  0  0
   -1.7921   -3.5705   -0.2799 H   0  0  0  0  0  0  0  0  0  0  0  0
   -2.4954   -5.5017    1.1425 H   0  0  0  0  0  0  0  0  0  0  0  0
   -0.7489   -5.2064    1.1636 H   0  0  0  0  0  0  0  0  0  0  0  0
   -0.4197   -5.4499    5.6511 H   0  0  0  0  0  0  0  0  0  0  0  0
   -3.2986   -3.3810    3.4013 H   0  0  0  0  0  0  0  0  0  0  0  0
   -3.4585   -3.0421    5.9192 H   0  0  0  0  0  0  0  0  0  0  0  0
   -2.7854   -4.3675    6.8813 H   0  0  0  0  0  0  0  0  0  0  0  0
   -1.9241   -2.2117    7.6984 H   0  0  0  0  0  0  0  0  0  0  0  0
   -0.6214   -3.2385    7.1088 H   0  0  0  0  0  0  0  0  0  0  0  0
  1  2  1  0  0  0  0
  2  3  1  0  0  0  0
  3  4  1  0  0  0  0
  4  5  1  0  0  0  0
  5  6  1  0  0  0  0
  6  7  1  0  0  0  0
  7  8  1  0  0  0  0
  8  9  4  0  0  0  0
  9 10  2  0  0  0  0
 10 11  4  0  0  0  0
  8 12  4  0  0  0  0
 11 12  4  0  0  0  0
 11 13  1  0  0  0  0
 13 14  1  0  0  0  0
 14 15  1  0  0  0  0
 15 16  1  0  0  0  0
 16 17  1  0  0  0  0
 17 18  1  0  0  0  0
 18 19  1  0  0  0  0
 18 20  1  0  0  0  0
 18 21  1  0  0  0  0
 17 22  1  0  0  0  0
 17 23  1  0  0  0  0
 16 24  1  0  0  0  0
 16 25  1  0  0  0  0
 15 26  1  0  0  0  0
 15 27  1  0  0  0  0
  1 28  1  0  0  0  0
  1 29  1  0  0  0  0
  1 30  1  0  0  0  0
  2 31  1  0  0  0  0
  2 32  1  0  0  0  0
  3 33  1  0  0  0  0
  3 34  1  0  0  0  0
  4 35  1  0  0  0  0
  4 36  1  0  0  0  0
  5 37  1  0  0  0  0
  5 38  1  0  0  0  0
  6 39  1  0  0  0  0
  6 40  1  0  0  0  0
  7 41  1  0  0  0  0
  7 42  1  0  0  0  0
 10 43  1  0  0  0  0
 12 44  1  0  0  0  0
 13 45  1  0  0  0  0
 13 46  1  0  0  0  0
 14 47  1  0  0  0  0
 14 48  1  0  0  0  0
M  CHG  1   1   1
M  END
