 xtb: 6.7.1 (edcfbbe)
          12202406433D

 59 62  0     0  0            999 V2000
   -0.2343   -0.6075   -0.6422 C   0  0  0  0  0  0  0  0  0  0  0  0
    0.2718   -0.7635    0.7346 C   0  0  0  0  0  0  0  0  0  0  0  0
    0.5668    0.1899    1.6230 N   0  0  0  0  0  0  0  0  0  0  0  0
    0.9750   -0.4119    2.7810 C   0  0  0  0  0  0  0  0  0  0  0  0
    0.9164   -1.7515    2.5868 C   0  0  0  0  0  0  0  0  0  0  0  0
    0.4795   -1.9517    1.3110 N   0  0  0  0  0  0  0  0  0  0  0  0
    0.2615   -3.2358    0.6860 C   0  0  0  0  0  0  0  0  0  0  0  0
   -1.2097   -3.5098    0.4629 C   0  0  0  0  0  0  0  0  0  0  0  0
   -2.1240   -3.2890    1.4867 C   0  0  0  0  0  0  0  0  0  0  0  0
   -3.4682   -3.5534    1.2897 C   0  0  0  0  0  0  0  0  0  0  0  0
   -3.9083   -4.0463    0.0719 C   0  0  0  0  0  0  0  0  0  0  0  0
   -3.0007   -4.2720   -0.9497 C   0  0  0  0  0  0  0  0  0  0  0  0
   -1.6565   -4.0000   -0.7572 C   0  0  0  0  0  0  0  0  0  0  0  0
    0.6286    1.6190    1.4274 C   0  0  0  0  0  0  0  0  0  0  0  0
    2.0762    2.1322    1.3575 C   0  0  0  0  0  0  0  0  0  0  0  0
    2.7699    2.1012   -0.0314 C   0  0  0  0  0  0  0  0  0  0  0  0
    1.7932    2.5430   -1.1098 C   0  0  0  0  0  0  0  0  0  0  0  0
    1.1223    3.7563   -0.9600 C   0  0  0  0  0  0  0  0  0  0  0  0
    0.2271    4.1940   -1.9182 C   0  0  0  0  0  0  0  0  0  0  0  0
   -0.0171    3.4272   -3.0463 C   0  0  0  0  0  0  0  0  0  0  0  0
    0.6473    2.2251   -3.2083 C   0  0  0  0  0  0  0  0  0  0  0  0
    1.5466    1.7869   -2.2485 C   0  0  0  0  0  0  0  0  0  0  0  0
    3.9832    3.0306    0.0180 C   0  0  0  0  0  0  0  0  0  0  0  0
    4.8980    2.9131    1.0614 C   0  0  0  0  0  0  0  0  0  0  0  0
    6.0147    3.7269    1.1193 C   0  0  0  0  0  0  0  0  0  0  0  0
    6.2450    4.6673    0.1295 C   0  0  0  0  0  0  0  0  0  0  0  0
    5.3562    4.7756   -0.9246 C   0  0  0  0  0  0  0  0  0  0  0  0
    4.2377    3.9607   -0.9840 C   0  0  0  0  0  0  0  0  0  0  0  0
    3.2876    0.6804   -0.3271 C   0  0  0  0  0  0  0  0  0  0  0  0
    2.7960   -0.3215    0.1605 O   0  0  0  0  0  0  0  0  0  0  0  0
    4.3159    0.6244   -1.1867 N   0  0  0  0  0  0  0  0  0  0  0  0
   -1.1519   -1.1821   -0.7688 H   0  0  0  0  0  0  0  0  0  0  0  0
    0.5042   -0.9930   -1.3447 H   0  0  0  0  0  0  0  0  0  0  0  0
   -0.4253    0.4319   -0.8879 H   0  0  0  0  0  0  0  0  0  0  0  0
    1.2659    0.1498    3.6444 H   0  0  0  0  0  0  0  0  0  0  0  0
    1.1565   -2.5595    3.2465 H   0  0  0  0  0  0  0  0  0  0  0  0
    0.7998   -3.2629   -0.2652 H   0  0  0  0  0  0  0  0  0  0  0  0
    0.6865   -3.9995    1.3431 H   0  0  0  0  0  0  0  0  0  0  0  0
   -1.7852   -2.9149    2.4430 H   0  0  0  0  0  0  0  0  0  0  0  0
   -4.1707   -3.3811    2.0905 H   0  0  0  0  0  0  0  0  0  0  0  0
   -4.9554   -4.2572   -0.0787 H   0  0  0  0  0  0  0  0  0  0  0  0
   -3.3376   -4.6598   -1.8985 H   0  0  0  0  0  0  0  0  0  0  0  0
   -0.9507   -4.1797   -1.5552 H   0  0  0  0  0  0  0  0  0  0  0  0
    0.0787    1.8909    0.5265 H   0  0  0  0  0  0  0  0  0  0  0  0
    0.1373    2.0855    2.2858 H   0  0  0  0  0  0  0  0  0  0  0  0
    2.0778    3.1665    1.7021 H   0  0  0  0  0  0  0  0  0  0  0  0
    2.6747    1.5494    2.0578 H   0  0  0  0  0  0  0  0  0  0  0  0
    1.3173    4.3751   -0.0974 H   0  0  0  0  0  0  0  0  0  0  0  0
   -0.2757    5.1396   -1.7864 H   0  0  0  0  0  0  0  0  0  0  0  0
   -0.7130    3.7695   -3.7959 H   0  0  0  0  0  0  0  0  0  0  0  0
    0.4731    1.6240   -4.0878 H   0  0  0  0  0  0  0  0  0  0  0  0
    2.0601    0.8499   -2.4019 H   0  0  0  0  0  0  0  0  0  0  0  0
    4.7506    2.1742    1.8345 H   0  0  0  0  0  0  0  0  0  0  0  0
    6.7079    3.6230    1.9398 H   0  0  0  0  0  0  0  0  0  0  0  0
    7.1139    5.3046    0.1767 H   0  0  0  0  0  0  0  0  0  0  0  0
    5.5294    5.4957   -1.7095 H   0  0  0  0  0  0  0  0  0  0  0  0
    3.5620    4.0591   -1.8201 H   0  0  0  0  0  0  0  0  0  0  0  0
    4.7502    1.4579   -1.5463 H   0  0  0  0  0  0  0  0  0  0  0  0
    4.7326   -0.2689   -1.3950 H   0  0  0  0  0  0  0  0  0  0  0  0
  1  2  1  0  0  0  0
  2  3  4  0  0  0  0
  3  4  4  0  0  0  0
  4  5  2  0  0  0  0
  2  6  4  0  0  0  0
  5  6  4  0  0  0  0
  6  7  1  0  0  0  0
  7  8  1  0  0  0  0
  8  9  4  0  0  0  0
  9 10  4  0  0  0  0
 10 11  4  0  0  0  0
 11 12  4  0  0  0  0
  8 13  4  0  0  0  0
 12 13  4  0  0  0  0
  3 14  1  0  0  0  0
 14 15  1  0  0  0  0
 15 16  1  0  0  0  0
 16 17  1  0  0  0  0
 17 18  4  0  0  0  0
 18 19  4  0  0  0  0
 19 20  4  0  0  0  0
 20 21  4  0  0  0  0
 17 22  4  0  0  0  0
 21 22  4  0  0  0  0
 16 23  1  0  0  0  0
 23 24  4  0  0  0  0
 24 25  4  0  0  0  0
 25 26  4  0  0  0  0
 26 27  4  0  0  0  0
 23 28  4  0  0  0  0
 27 28  4  0  0  0  0
 16 29  1  0  0  0  0
 29 30  2  0  0  0  0
 29 31  4  0  0  0  0
  1 32  1  0  0  0  0
  1 33  1  0  0  0  0
  1 34  1  0  0  0  0
  4 35  1  0  0  0  0
  5 36  1  0  0  0  0
  7 37  1  0  0  0  0
  7 38  1  0  0  0  0
  9 39  1  0  0  0  0
 10 40  1  0  0  0  0
 11 41  1  0  0  0  0
 12 42  1  0  0  0  0
 13 43  1  0  0  0  0
 14 44  1  0  0  0  0
 14 45  1  0  0  0  0
 15 46  1  0  0  0  0
 15 47  1  0  0  0  0
 18 48  1  0  0  0  0
 19 49  1  0  0  0  0
 20 50  1  0  0  0  0
 21 51  1  0  0  0  0
 22 52  1  0  0  0  0
 24 53  1  0  0  0  0
 25 54  1  0  0  0  0
 26 55  1  0  0  0  0
 27 56  1  0  0  0  0
 28 57  1  0  0  0  0
 31 58  1  0  0  0  0
 31 59  1  0  0  0  0
M  CHG  1   1   1
M  END
