66

C          1.22032       -0.79871       -0.11938
C          1.32754       -0.20323        1.27608
C          1.64143        1.29523        1.27701
C          0.59759        2.18864        0.59767
C         -0.81825        2.10470        1.17810
C         -0.94204        2.47244        2.66109
C         -0.50514        3.89697        3.02341
C         -1.26515        5.02010        2.30772
C         -2.78106        5.03204        2.53415
C         -3.22098        5.23287        3.98894
C         -2.82776        6.57815        4.61264
C         -3.36030        7.82282        3.88979
C         -4.88167        7.87521        3.70612
C         -5.69210        7.91999        5.00621
C         -5.55457        9.20629        5.82979
C         -5.93933       10.53243        5.15709
N         -7.45533       10.85805        5.05832
C         -8.08392       10.86763        6.44772
O         -7.36027       11.69186        7.33719
C         -9.54877       11.30734        6.44928
C         -7.53469       12.26318        4.44122
C         -8.17343        9.89719        4.12848
H          0.36335       -0.39272       -0.66468
H          1.08858       -1.88368       -0.05603
H          2.12647       -0.60163       -0.70096
H          0.40488       -0.40265        1.83158
H          2.12955       -0.72322        1.81400
H          1.78403        1.62270        2.31345
H          2.60579        1.45316        0.77760
H          0.94834        3.22656        0.64123
H          0.55016        1.94178       -0.46970
H         -1.47519        2.75237        0.58565
H         -1.20815        1.08959        1.03793
H         -1.98312        2.32190        2.97017
H         -0.35635        1.76609        3.26111
H         -0.60416        4.02514        4.10772
H          0.56460        4.01284        2.81288
H         -0.84158        5.98169        2.62032
H         -1.07596        4.95444        1.22976
H         -3.22014        5.81651        1.90703
H         -3.21183        4.09344        2.16667
H         -4.30972        5.11485        4.04166
H         -2.81343        4.42722        4.61051
H         -3.17157        6.59046        5.65373
H         -1.73481        6.64819        4.66584
H         -3.02512        8.71351        4.43390
H         -2.89061        7.88944        2.90114
H         -5.12949        8.73954        3.08115
H         -5.20592        7.00282        3.12719
H         -6.74071        7.73652        4.76621
H         -5.40224        7.07570        5.64283
H         -6.08953        9.07733        6.77521
H         -4.50009        9.29455        6.12238
H         -5.48890       11.35358        5.72900
H         -5.53193       10.59807        4.14288
H         -8.04324        9.83928        6.82109
H         -7.77967       11.62384        8.21460
H        -10.17001       10.71193        5.77575
H         -9.96222       11.19627        7.45895
H         -9.65902       12.36807        6.20337
H         -7.00573       12.24587        3.48282
H         -8.58218       12.52338        4.26804
H         -7.06571       12.97979        5.12129
H         -7.53950        9.70823        3.25788
H         -8.39463        8.97616        4.67041
H         -9.11301       10.35147        3.79985
