9

C          0.93163        0.40817       -0.11346
N          0.60942       -0.87354       -0.26025
C         -0.67806       -0.99260        0.09928
N         -1.17576        0.22973        0.38938
N         -0.19475        1.10707        0.02755
H          1.94096        0.80179       -0.16284
H         -1.23226       -1.91572        0.16777
H         -0.40645        1.47896       -0.88645
H         -0.08508        1.88054        0.66041
