 xtb: 6.7.1 (edcfbbe)
          12202406433D

 50 53  0     0  0            999 V2000
   -0.0889   -0.0268    0.4966 O   0  0  0  0  0  0  0  0  0  0  0  0
   -0.5614    0.9260   -0.3038 C   0  0  0  0  0  0  0  0  0  0  0  0
   -0.4869    2.0965   -0.0953 O   0  0  0  0  0  0  0  0  0  0  0  0
   -1.1847    0.3276   -1.5750 C   0  0  0  0  0  0  0  0  0  0  0  0
   -1.6982   -0.9969   -1.3677 N   0  0  0  0  0  0  0  0  0  0  0  0
   -0.9717   -2.1636   -1.5016 C   0  0  0  0  0  0  0  0  0  0  0  0
    0.3355   -2.4037   -1.9021 C   0  0  0  0  0  0  0  0  0  0  0  0
    0.7418   -3.7214   -1.9559 C   0  0  0  0  0  0  0  0  0  0  0  0
   -0.1232   -4.7685   -1.6314 C   0  0  0  0  0  0  0  0  0  0  0  0
   -1.4227   -4.5382   -1.2273 C   0  0  0  0  0  0  0  0  0  0  0  0
   -1.8374   -3.2139   -1.1542 C   0  0  0  0  0  0  0  0  0  0  0  0
   -3.0421   -2.6326   -0.7950 N   0  0  0  0  0  0  0  0  0  0  0  0
   -2.9313   -1.3052   -0.9396 C   0  0  0  0  0  0  0  0  0  0  0  0
   -3.9778   -0.2932   -0.6760 C   0  0  0  0  0  0  0  0  0  0  0  0
   -3.5463    0.6631    0.4243 C   0  0  0  0  0  0  0  0  0  0  0  0
   -3.7452    2.0292    0.2857 C   0  0  0  0  0  0  0  0  0  0  0  0
   -3.3632    2.8953    1.2948 C   0  0  0  0  0  0  0  0  0  0  0  0
   -2.7784    2.4031    2.4489 C   0  0  0  0  0  0  0  0  0  0  0  0
   -2.5824    1.0404    2.5937 C   0  0  0  0  0  0  0  0  0  0  0  0
   -2.9627    0.1722    1.5852 C   0  0  0  0  0  0  0  0  0  0  0  0
   -4.2238   -3.3457   -0.3714 C   0  0  0  0  0  0  0  0  0  0  0  0
   -4.7411   -2.9070    1.0258 C   0  0  0  0  0  0  0  0  0  0  0  0
   -5.7871   -2.3053    1.0787 O   0  0  0  0  0  0  0  0  0  0  0  0
   -3.9402   -3.2389    2.2080 C   0  0  0  0  0  0  0  0  0  0  0  0
   -2.7309   -3.9390    2.1655 C   0  0  0  0  0  0  0  0  0  0  0  0
   -2.0445   -4.2036    3.3349 C   0  0  0  0  0  0  0  0  0  0  0  0
   -2.5492   -3.7833    4.5571 C   0  0  0  0  0  0  0  0  0  0  0  0
   -3.7480   -3.0876    4.6113 C   0  0  0  0  0  0  0  0  0  0  0  0
   -4.4376   -2.8158    3.4479 C   0  0  0  0  0  0  0  0  0  0  0  0
    0.3303    0.3584    1.2837 H   0  0  0  0  0  0  0  0  0  0  0  0
   -1.9670    1.0048   -1.9217 H   0  0  0  0  0  0  0  0  0  0  0  0
   -0.3996    0.2897   -2.3364 H   0  0  0  0  0  0  0  0  0  0  0  0
    1.0089   -1.6022   -2.1563 H   0  0  0  0  0  0  0  0  0  0  0  0
    1.7496   -3.9514   -2.2619 H   0  0  0  0  0  0  0  0  0  0  0  0
    0.2336   -5.7835   -1.7008 H   0  0  0  0  0  0  0  0  0  0  0  0
   -2.0789   -5.3616   -0.9937 H   0  0  0  0  0  0  0  0  0  0  0  0
   -4.1672    0.2776   -1.5903 H   0  0  0  0  0  0  0  0  0  0  0  0
   -4.9149   -0.7723   -0.3877 H   0  0  0  0  0  0  0  0  0  0  0  0
   -4.2048    2.4207   -0.6098 H   0  0  0  0  0  0  0  0  0  0  0  0
   -3.5201    3.9554    1.1764 H   0  0  0  0  0  0  0  0  0  0  0  0
   -2.4779    3.0791    3.2335 H   0  0  0  0  0  0  0  0  0  0  0  0
   -2.1336    0.6464    3.4933 H   0  0  0  0  0  0  0  0  0  0  0  0
   -2.8036   -0.8904    1.7084 H   0  0  0  0  0  0  0  0  0  0  0  0
   -5.0389   -3.1635   -1.0801 H   0  0  0  0  0  0  0  0  0  0  0  0
   -4.0055   -4.4136   -0.3614 H   0  0  0  0  0  0  0  0  0  0  0  0
   -2.3157   -4.2853    1.2326 H   0  0  0  0  0  0  0  0  0  0  0  0
   -1.1130   -4.7474    3.2948 H   0  0  0  0  0  0  0  0  0  0  0  0
   -2.0093   -4.0028    5.4652 H   0  0  0  0  0  0  0  0  0  0  0  0
   -4.1438   -2.7622    5.5606 H   0  0  0  0  0  0  0  0  0  0  0  0
   -5.3715   -2.2751    3.4672 H   0  0  0  0  0  0  0  0  0  0  0  0
  1  2  1  0  0  0  0
  2  3  2  0  0  0  0
  2  4  1  0  0  0  0
  4  5  1  0  0  0  0
  5  6  1  0  0  0  0
  6  7  4  0  0  0  0
  7  8  4  0  0  0  0
  8  9  4  0  0  0  0
  9 10  4  0  0  0  0
  6 11  4  0  0  0  0
 10 11  4  0  0  0  0
 11 12  1  0  0  0  0
  5 13  4  0  0  0  0
 12 13  4  0  0  0  0
 13 14  1  0  0  0  0
 14 15  1  0  0  0  0
 15 16  4  0  0  0  0
 16 17  4  0  0  0  0
 17 18  4  0  0  0  0
 18 19  4  0  0  0  0
 15 20  4  0  0  0  0
 19 20  4  0  0  0  0
 12 21  1  0  0  0  0
 21 22  1  0  0  0  0
 22 23  2  0  0  0  0
 22 24  1  0  0  0  0
 24 25  4  0  0  0  0
 25 26  4  0  0  0  0
 26 27  4  0  0  0  0
 27 28  4  0  0  0  0
 24 29  4  0  0  0  0
 28 29  4  0  0  0  0
  1 30  1  0  0  0  0
  4 31  1  0  0  0  0
  4 32  1  0  0  0  0
  7 33  1  0  0  0  0
  8 34  1  0  0  0  0
  9 35  1  0  0  0  0
 10 36  1  0  0  0  0
 14 37  1  0  0  0  0
 14 38  1  0  0  0  0
 16 39  1  0  0  0  0
 17 40  1  0  0  0  0
 18 41  1  0  0  0  0
 19 42  1  0  0  0  0
 20 43  1  0  0  0  0
 21 44  1  0  0  0  0
 21 45  1  0  0  0  0
 25 46  1  0  0  0  0
 26 47  1  0  0  0  0
 27 48  1  0  0  0  0
 28 49  1  0  0  0  0
 29 50  1  0  0  0  0
M  CHG  1   1   1
M  END
