56

C          1.39287        1.20029        1.05520
C          1.25991       -0.24290        0.59435
C          1.34894       -1.25716        1.73668
C          0.21707       -1.20304        2.76325
C         -1.17617       -1.58420        2.25743
P         -1.64465       -3.29473        2.23568
C         -1.20084       -4.04629        3.80593
C         -1.50520       -3.32208        5.11659
C         -2.95542       -3.31935        5.59833
C         -3.56286       -4.70575        5.74450
C         -3.40295       -3.51104        2.02887
C         -4.20105       -2.45553        1.26204
C         -4.65586       -2.82894       -0.15038
C         -5.51738       -4.08135       -0.21817
C         -0.77359       -4.27578        1.02837
C         -1.26717       -4.32271       -0.41132
C         -1.00472       -3.06315       -1.23167
C          0.43596       -2.95706       -1.70687
H          0.54339        1.50441        1.67323
H          1.42907        1.86851        0.18868
H          2.31204        1.34581        1.63148
H          0.32654       -0.36246        0.03698
H          2.07240       -0.45275       -0.11224
H          1.41350       -2.26250        1.31684
H          2.29695       -1.09718        2.26643
H          0.49705       -1.85469        3.59581
H          0.16964       -0.19029        3.18025
H         -1.89156       -1.10042        2.93522
H         -1.35852       -1.12865        1.28200
H         -1.60738       -5.06271        3.83129
H         -0.11148       -4.17614        3.76734
H         -0.89736       -3.79037        5.90200
H         -1.17051       -2.28229        5.05546
H         -2.98309       -2.83046        6.58050
H         -3.57514       -2.70032        4.94349
H         -2.93838       -5.34363        6.37794
H         -4.55257       -4.63502        6.20707
H         -3.68739       -5.19769        4.77580
H         -3.58595       -4.51806        1.64547
H         -3.83236       -3.52744        3.03117
H         -5.10705       -2.23150        1.84128
H         -3.64374       -1.51640        1.20973
H         -5.24276       -1.99122       -0.54765
H         -3.79764       -2.93479       -0.81611
H         -6.35205       -4.02550        0.48746
H         -5.93205       -4.19666       -1.22491
H         -4.93906       -4.98365       -0.00080
H          0.29259       -4.04289        1.05512
H         -0.84210       -5.30811        1.39667
H         -0.79702       -5.17608       -0.91658
H         -2.33850       -4.53689       -0.40872
H         -1.64756       -3.08599       -2.12006
H         -1.28372       -2.16908       -0.66966
H          0.68992       -3.79395       -2.36557
H          0.57901       -2.03041       -2.27173
H          1.14117       -2.95829       -0.87345
