54

C         -0.40374       -0.08910       -1.33018
O          0.51259       -0.20073       -2.41862
C         -0.02973       -0.20996       -3.67929
C         -1.33314        0.21999       -3.96069
C         -1.81028        0.23957       -5.27189
C         -0.98925       -0.16139       -6.31750
C          0.30766       -0.59510       -6.05136
C          0.80299       -0.64116       -4.73240
C          2.23705       -1.07165       -4.53792
N          2.39563       -1.98727       -3.41192
C          2.97992       -1.61899       -2.26699
N          2.89860       -2.61678       -1.37694
C          2.27394       -3.70413       -1.99425
C          1.94337       -3.29133       -3.29571
C          1.27622       -4.11983       -4.19321
C          0.95620       -5.40118       -3.72601
C          1.29386       -5.82113       -2.42446
C          1.96363       -4.97873       -1.52511
C          3.35195       -2.55603        0.02357
C          3.35752       -1.13654        0.60956
C          4.66272       -0.37624        0.32337
Si         4.53398        1.50586       -0.05110
C          2.75436        2.08766       -0.06363
C          5.52295        2.48056        1.19826
C          5.25868        1.77763       -1.77410
H         -1.20029       -0.83815       -1.39649
H         -0.81059        0.92486       -1.26766
H          0.15049       -0.28131       -0.40686
H         -2.00480        0.57031       -3.18250
H         -2.82119        0.58612       -5.47661
H         -1.35608       -0.12365       -7.34110
H          0.93521       -0.88500       -6.89316
H          2.62592       -1.58362       -5.42625
H          2.85916       -0.18341       -4.37594
H          3.41083       -0.64663       -2.09756
H          1.01297       -3.78913       -5.18979
H          0.42876       -6.09138       -4.38554
H          1.02175       -6.82901       -2.10841
H          2.22038       -5.30047       -0.52403
H          2.65756       -3.16388        0.61533
H          4.34155       -3.02197        0.08319
H          2.47410       -0.60236        0.24896
H          3.24629       -1.21035        1.69918
H          5.33043       -0.48808        1.18666
H          5.19183       -0.82461       -0.52520
H          2.27219        1.90208        0.90042
H          2.70255        3.16120       -0.26889
H          2.18308        1.57221       -0.84068
H          6.56485        2.14792        1.21551
H          5.51174        3.54611        0.94833
H          5.10777        2.36300        2.20319
H          6.24781        1.31649       -1.84929
H          4.61393        1.33629       -2.53942
H          5.35695        2.84626       -1.98452
