25

C          1.26398       -0.42663        0.21095
C          1.03110        0.85889       -0.27089
C         -0.27550        1.30121       -0.48255
C         -1.36505        0.45791       -0.21190
C         -1.11644       -0.83649        0.27154
C          0.19235       -1.27424        0.47991
C         -2.77603        0.94336       -0.41228
N         -3.35661        1.40896        0.87106
C         -3.08179        2.65827        1.31559
C         -3.61824        3.11939        2.51199
C         -4.44291        2.28542        3.25473
C         -4.71463        1.00608        2.78870
C         -4.15734        0.58499        1.58670
H          2.28391       -0.77162        0.37004
H          1.87386        1.51300       -0.48739
H         -0.42013        2.30750       -0.87146
H         -1.92866       -1.52889        0.48278
H          0.38242       -2.28103        0.84760
H         -2.82226        1.77967       -1.12014
H         -3.41251        0.14851       -0.81827
H         -2.42948        3.27919        0.70856
H         -3.39208        4.12325        2.86543
H         -4.86992        2.63051        4.19569
H         -5.35617        0.33953        3.36140
H         -4.34435       -0.40952        1.19216
