 xtb: 6.7.1 (edcfbbe)
          12202406433D

 56 57  0     0  0            999 V2000
    2.2288    0.2246    1.6307 C   0  0  0  0  0  0  0  0  0  0  0  0
    0.7120    0.0804    1.5583 C   0  0  0  0  0  0  0  0  0  0  0  0
    0.0042    1.3866    1.8905 C   0  0  0  0  0  0  0  0  0  0  0  0
   -1.5040    1.1905    1.8371 C   0  0  0  0  0  0  0  0  0  0  0  0
   -2.0363    0.7095    0.4767 C   0  0  0  0  0  0  0  0  0  0  0  0
   -1.2321   -0.5153   -0.0006 C   0  0  0  0  0  0  0  0  0  0  0  0
    0.2816   -0.3325    0.1547 C   0  0  0  0  0  0  0  0  0  0  0  0
   -1.5048   -0.7197   -1.4117 O   0  0  0  0  0  0  0  0  0  0  0  0
   -1.2908   -2.0080   -1.8680 C   0  0  0  0  0  0  0  0  0  0  0  0
   -1.5414   -2.0472   -3.3398 N   0  0  0  0  0  0  0  0  0  0  0  0
   -0.5349   -1.1844   -4.0560 C   0  0  0  0  0  0  0  0  0  0  0  0
    0.8696   -1.7271   -4.0549 C   0  0  0  0  0  0  0  0  0  0  0  0
    1.2964   -2.5909   -5.0603 C   0  0  0  0  0  0  0  0  0  0  0  0
    2.5922   -3.0757   -5.0644 C   0  0  0  0  0  0  0  0  0  0  0  0
    3.4787   -2.7008   -4.0680 C   0  0  0  0  0  0  0  0  0  0  0  0
    3.0708   -1.8221   -3.0788 C   0  0  0  0  0  0  0  0  0  0  0  0
    1.7760   -1.3333   -3.0766 C   0  0  0  0  0  0  0  0  0  0  0  0
   -1.4640   -3.4425   -3.8013 C   0  0  0  0  0  0  0  0  0  0  0  0
   -2.8875   -1.5166   -3.6235 C   0  0  0  0  0  0  0  0  0  0  0  0
   -3.5523    0.4330    0.6280 C   0  0  0  0  0  0  0  0  0  0  0  0
   -4.3107    1.7210    0.9595 C   0  0  0  0  0  0  0  0  0  0  0  0
   -4.1995   -0.1884   -0.6077 C   0  0  0  0  0  0  0  0  0  0  0  0
    2.7204   -0.7153    1.3892 H   0  0  0  0  0  0  0  0  0  0  0  0
    2.5740    0.9853    0.9338 H   0  0  0  0  0  0  0  0  0  0  0  0
    2.5307    0.5190    2.6318 H   0  0  0  0  0  0  0  0  0  0  0  0
    0.3948   -0.6889    2.2704 H   0  0  0  0  0  0  0  0  0  0  0  0
    0.2854    1.7225    2.8891 H   0  0  0  0  0  0  0  0  0  0  0  0
    0.3088    2.1582    1.1805 H   0  0  0  0  0  0  0  0  0  0  0  0
   -1.7898    0.4617    2.5993 H   0  0  0  0  0  0  0  0  0  0  0  0
   -1.9820    2.1362    2.0836 H   0  0  0  0  0  0  0  0  0  0  0  0
   -1.8909    1.4960   -0.2704 H   0  0  0  0  0  0  0  0  0  0  0  0
   -1.5641   -1.4043    0.5535 H   0  0  0  0  0  0  0  0  0  0  0  0
    0.5922    0.4499   -0.5428 H   0  0  0  0  0  0  0  0  0  0  0  0
    0.7885   -1.2628   -0.1154 H   0  0  0  0  0  0  0  0  0  0  0  0
   -0.2578   -2.3501   -1.7018 H   0  0  0  0  0  0  0  0  0  0  0  0
   -1.9807   -2.7227   -1.3860 H   0  0  0  0  0  0  0  0  0  0  0  0
   -0.8819   -1.0750   -5.0852 H   0  0  0  0  0  0  0  0  0  0  0  0
   -0.5644   -0.2113   -3.5618 H   0  0  0  0  0  0  0  0  0  0  0  0
    0.6235   -2.8725   -5.8573 H   0  0  0  0  0  0  0  0  0  0  0  0
    2.9118   -3.7400   -5.8519 H   0  0  0  0  0  0  0  0  0  0  0  0
    4.4887   -3.0788   -4.0730 H   0  0  0  0  0  0  0  0  0  0  0  0
    3.7628   -1.5065   -2.3138 H   0  0  0  0  0  0  0  0  0  0  0  0
    1.4753   -0.6217   -2.3241 H   0  0  0  0  0  0  0  0  0  0  0  0
   -2.2279   -4.0421   -3.3090 H   0  0  0  0  0  0  0  0  0  0  0  0
   -1.6285   -3.4817   -4.8763 H   0  0  0  0  0  0  0  0  0  0  0  0
   -0.4842   -3.8618   -3.5791 H   0  0  0  0  0  0  0  0  0  0  0  0
   -3.6398   -2.1115   -3.1093 H   0  0  0  0  0  0  0  0  0  0  0  0
   -2.9512   -0.4913   -3.2670 H   0  0  0  0  0  0  0  0  0  0  0  0
   -3.0825   -1.5470   -4.6932 H   0  0  0  0  0  0  0  0  0  0  0  0
   -3.6805   -0.2674    1.4615 H   0  0  0  0  0  0  0  0  0  0  0  0
   -4.0978    2.4899    0.2202 H   0  0  0  0  0  0  0  0  0  0  0  0
   -5.3809    1.5308    0.9522 H   0  0  0  0  0  0  0  0  0  0  0  0
   -4.0562    2.1027    1.9426 H   0  0  0  0  0  0  0  0  0  0  0  0
   -3.8191   -1.1870   -0.7976 H   0  0  0  0  0  0  0  0  0  0  0  0
   -5.2728   -0.2697   -0.4523 H   0  0  0  0  0  0  0  0  0  0  0  0
   -4.0295    0.4394   -1.4786 H   0  0  0  0  0  0  0  0  0  0  0  0
  1  2  1  0  0  0  0
  2  3  1  0  0  0  0
  3  4  1  0  0  0  0
  4  5  1  0  0  0  0
  5  6  1  0  0  0  0
  2  7  1  0  0  0  0
  6  7  1  0  0  0  0
  6  8  1  0  0  0  0
  8  9  1  0  0  0  0
  9 10  1  0  0  0  0
 10 11  1  0  0  0  0
 11 12  1  0  0  0  0
 12 13  4  0  0  0  0
 13 14  4  0  0  0  0
 14 15  4  0  0  0  0
 15 16  4  0  0  0  0
 12 17  4  0  0  0  0
 16 17  4  0  0  0  0
 10 18  1  0  0  0  0
 10 19  1  0  0  0  0
  5 20  1  0  0  0  0
 20 21  1  0  0  0  0
 20 22  1  0  0  0  0
  1 23  1  0  0  0  0
  1 24  1  0  0  0  0
  1 25  1  0  0  0  0
  2 26  1  0  0  0  0
  3 27  1  0  0  0  0
  3 28  1  0  0  0  0
  4 29  1  0  0  0  0
  4 30  1  0  0  0  0
  5 31  1  0  0  0  0
  6 32  1  0  0  0  0
  7 33  1  0  0  0  0
  7 34  1  0  0  0  0
  9 35  1  0  0  0  0
  9 36  1  0  0  0  0
 11 37  1  0  0  0  0
 11 38  1  0  0  0  0
 13 39  1  0  0  0  0
 14 40  1  0  0  0  0
 15 41  1  0  0  0  0
 16 42  1  0  0  0  0
 17 43  1  0  0  0  0
 18 44  1  0  0  0  0
 18 45  1  0  0  0  0
 18 46  1  0  0  0  0
 19 47  1  0  0  0  0
 19 48  1  0  0  0  0
 19 49  1  0  0  0  0
 20 50  1  0  0  0  0
 21 51  1  0  0  0  0
 21 52  1  0  0  0  0
 21 53  1  0  0  0  0
 22 54  1  0  0  0  0
 22 55  1  0  0  0  0
 22 56  1  0  0  0  0
M  CHG  1   1   1
M  END
