25

Br         0.96227       -0.01446       -0.13409
C          2.88688       -0.00558       -0.05337
C          3.58739        1.23098       -0.03347
Br         2.60169        2.88622       -0.07740
C          5.00167        1.28036        0.00980
Br         5.95074        2.92655       -0.06202
C          5.67243        0.04225        0.06866
C          4.97699       -1.18228        0.06489
C          3.57215       -1.24207       -0.02120
Br         2.66206       -2.90549       -0.17016
N          5.96624       -2.18035        0.17110
C          5.76559       -3.61650        0.41455
C          7.20351       -1.64219       -0.00196
N          7.03986       -0.29830        0.13676
C          8.18105        0.61521        0.29771
C          8.54307       -2.41058       -0.23207
F          9.39974       -1.70037       -1.00865
F          9.17084       -2.65843        0.94354
F          8.34172       -3.60386       -0.84571
H          5.46987       -4.10344       -0.51723
H          6.69096       -4.06778        0.78108
H          5.01964       -3.75664        1.19966
H          8.35007        1.15063       -0.63918
H          7.98772        1.29876        1.12715
H          9.08308        0.05606        0.55634
