72

C          1.24519        1.01410       -0.29220
C          1.32275       -0.03618       -1.38988
C          1.56615       -1.45295       -0.86292
C          0.49293       -1.99665        0.08643
C         -0.92284       -2.06918       -0.49563
C         -1.08230       -2.97556       -1.72165
C         -0.70771       -4.44658       -1.50475
C         -1.48066       -5.16417       -0.39163
C         -3.00098       -5.22444       -0.58251
C         -3.47500       -5.96775       -1.83689
C         -3.05083       -7.43810       -1.92420
C         -3.58692       -8.33956       -0.80554
C         -5.11329       -8.48644       -0.75422
C         -5.76975       -9.02457       -2.03237
C         -5.22716      -10.36752       -2.53338
C         -5.44541      -11.55516       -1.58852
C         -6.90482      -11.99219       -1.38927
C         -7.66952      -12.43587       -2.64339
N         -7.53693      -13.92387       -3.01797
C         -8.05862      -14.90166       -1.92602
C         -9.51890      -14.69045       -1.49329
O        -10.41470      -14.96205       -2.56445
C         -8.33209      -14.13567       -4.32298
C         -6.09175      -14.30685       -3.32519
H          0.36653        0.86717        0.34268
H          1.17134        2.01370       -0.73242
H          2.13823        0.98813        0.34027
H          0.40948       -0.00343       -1.99367
H          2.14738        0.22678       -2.06354
H          1.67781       -2.13082       -1.71717
H          2.52948       -1.47108       -0.33745
H          0.80117       -2.99296        0.42451
H          0.46465       -1.37883        0.99184
H         -1.60548       -2.40386        0.29429
H         -1.26003       -1.06060       -0.76188
H         -2.12160       -2.91379       -2.06560
H         -0.47762       -2.58066       -2.54669
H         -0.84612       -4.98393       -2.45035
H          0.36401       -4.51747       -1.28405
H         -1.08404       -6.18130       -0.29262
H         -1.27031       -4.67799        0.56814
H         -3.44425       -5.69096        0.30495
H         -3.40537       -4.20582       -0.60845
H         -4.56790       -5.90013       -1.88996
H         -3.10575       -5.44622       -2.72778
H         -3.36691       -7.83351       -2.89639
H         -1.95662       -7.50240       -1.92881
H         -3.13342       -9.33202       -0.91297
H         -3.23906       -7.96787        0.16521
H         -5.36969       -9.14233        0.08631
H         -5.56310       -7.51528       -0.51551
H         -6.85039       -9.10253       -1.86591
H         -5.64958       -8.28434       -2.83252
H         -5.67072      -10.58063       -3.51136
H         -4.15201      -10.27459       -2.72528
H         -4.84940      -12.39263       -1.95789
H         -5.02274      -11.31791       -0.60504
H         -6.93702      -12.76498       -0.61574
H         -7.44776      -11.14016       -0.96095
H         -8.73902      -12.25293       -2.49265
H         -7.37531      -11.86020       -3.52591
H         -7.94011      -15.90884       -2.34418
H         -7.39253      -14.80925       -1.06305
H         -9.74935      -15.39044       -0.68306
H         -9.69821      -13.67794       -1.12355
H        -11.31857      -14.97575       -2.19603
H         -7.78868      -13.63834       -5.13328
H         -8.40319      -15.20884       -4.52151
H         -9.31769      -13.67635       -4.22399
H         -5.66481      -13.55552       -3.99556
H         -5.53664      -14.36514       -2.38640
H         -6.08818      -15.29031       -3.80615
