 xtb: 6.7.1 (edcfbbe)
          12202406433D

 47 48  0     0  0            999 V2000
    0.4287   -0.3886   -0.1799 C   0  0  0  0  0  0  0  0  0  0  0  0
    0.7357    0.6322    0.9088 C   0  0  0  0  0  0  0  0  0  0  0  0
    1.0966    2.0137    0.3584 C   0  0  0  0  0  0  0  0  0  0  0  0
    0.0037    2.6777   -0.4842 C   0  0  0  0  0  0  0  0  0  0  0  0
   -1.3288    2.8900    0.2346 C   0  0  0  0  0  0  0  0  0  0  0  0
   -1.2434    3.8450    1.4311 C   0  0  0  0  0  0  0  0  0  0  0  0
   -0.8891    5.1786    1.0045 N   0  0  0  0  0  0  0  0  0  0  0  0
   -1.7545    6.1093    0.5149 C   0  0  0  0  0  0  0  0  0  0  0  0
   -1.0197    7.1957    0.1483 C   0  0  0  0  0  0  0  0  0  0  0  0
    0.2843    6.9073    0.4136 N   0  0  0  0  0  0  0  0  0  0  0  0
    0.3393    5.6822    0.9267 C   0  0  0  0  0  0  0  0  0  0  0  0
    1.3982    7.7705    0.1754 C   0  0  0  0  0  0  0  0  0  0  0  0
    1.6631    8.7941    1.0871 C   0  0  0  0  0  0  0  0  0  0  0  0
    0.8104    8.9794    2.3048 C   0  0  0  0  0  0  0  0  0  0  0  0
    2.7405    9.6251    0.8301 C   0  0  0  0  0  0  0  0  0  0  0  0
    3.5388    9.4586   -0.2969 C   0  0  0  0  0  0  0  0  0  0  0  0
    3.2437    8.4280   -1.1792 C   0  0  0  0  0  0  0  0  0  0  0  0
    2.1766    7.5688   -0.9633 C   0  0  0  0  0  0  0  0  0  0  0  0
    1.8734    6.4575   -1.9217 C   0  0  0  0  0  0  0  0  0  0  0  0
    4.6969   10.3701   -0.5350 C   0  0  0  0  0  0  0  0  0  0  0  0
   -0.4813   -0.1372   -0.7188 H   0  0  0  0  0  0  0  0  0  0  0  0
    0.2949   -1.3726    0.2613 H   0  0  0  0  0  0  0  0  0  0  0  0
    1.2490   -0.4444   -0.8917 H   0  0  0  0  0  0  0  0  0  0  0  0
   -0.1132    0.7067    1.5915 H   0  0  0  0  0  0  0  0  0  0  0  0
    1.5861    0.2760    1.4934 H   0  0  0  0  0  0  0  0  0  0  0  0
    1.3731    2.6593    1.1967 H   0  0  0  0  0  0  0  0  0  0  0  0
    1.9829    1.9119   -0.2713 H   0  0  0  0  0  0  0  0  0  0  0  0
    0.3773    3.6376   -0.8542 H   0  0  0  0  0  0  0  0  0  0  0  0
   -0.1855    2.0569   -1.3595 H   0  0  0  0  0  0  0  0  0  0  0  0
   -2.0590    3.2795   -0.4782 H   0  0  0  0  0  0  0  0  0  0  0  0
   -1.7034    1.9350    0.5995 H   0  0  0  0  0  0  0  0  0  0  0  0
   -2.2113    3.8936    1.9339 H   0  0  0  0  0  0  0  0  0  0  0  0
   -0.4942    3.4949    2.1420 H   0  0  0  0  0  0  0  0  0  0  0  0
   -2.8112    5.9441    0.4665 H   0  0  0  0  0  0  0  0  0  0  0  0
   -1.3226    8.1296   -0.2789 H   0  0  0  0  0  0  0  0  0  0  0  0
    1.2388    5.1907    1.2418 H   0  0  0  0  0  0  0  0  0  0  0  0
    1.2449    9.7316    2.9560 H   0  0  0  0  0  0  0  0  0  0  0  0
   -0.1920    9.3085    2.0315 H   0  0  0  0  0  0  0  0  0  0  0  0
    0.7197    8.0507    2.8676 H   0  0  0  0  0  0  0  0  0  0  0  0
    2.9650   10.4223    1.5220 H   0  0  0  0  0  0  0  0  0  0  0  0
    3.8553    8.2897   -2.0574 H   0  0  0  0  0  0  0  0  0  0  0  0
    2.4236    6.6003   -2.8467 H   0  0  0  0  0  0  0  0  0  0  0  0
    2.1724    5.4964   -1.5018 H   0  0  0  0  0  0  0  0  0  0  0  0
    0.8110    6.4129   -2.1587 H   0  0  0  0  0  0  0  0  0  0  0  0
    4.3959   11.4089   -0.4183 H   0  0  0  0  0  0  0  0  0  0  0  0
    5.4813   10.1713    0.1946 H   0  0  0  0  0  0  0  0  0  0  0  0
    5.1098   10.2312   -1.5297 H   0  0  0  0  0  0  0  0  0  0  0  0
  1  2  1  0  0  0  0
  2  3  1  0  0  0  0
  3  4  1  0  0  0  0
  4  5  1  0  0  0  0
  5  6  1  0  0  0  0
  6  7  1  0  0  0  0
  7  8  4  0  0  0  0
  8  9  2  0  0  0  0
  9 10  4  0  0  0  0
  7 11  4  0  0  0  0
 10 11  4  0  0  0  0
 10 12  1  0  0  0  0
 12 13  4  0  0  0  0
 13 14  1  0  0  0  0
 13 15  4  0  0  0  0
 15 16  4  0  0  0  0
 16 17  4  0  0  0  0
 12 18  4  0  0  0  0
 17 18  4  0  0  0  0
 18 19  1  0  0  0  0
 16 20  1  0  0  0  0
  1 21  1  0  0  0  0
  1 22  1  0  0  0  0
  1 23  1  0  0  0  0
  2 24  1  0  0  0  0
  2 25  1  0  0  0  0
  3 26  1  0  0  0  0
  3 27  1  0  0  0  0
  4 28  1  0  0  0  0
  4 29  1  0  0  0  0
  5 30  1  0  0  0  0
  5 31  1  0  0  0  0
  6 32  1  0  0  0  0
  6 33  1  0  0  0  0
  8 34  1  0  0  0  0
  9 35  1  0  0  0  0
 11 36  1  0  0  0  0
 14 37  1  0  0  0  0
 14 38  1  0  0  0  0
 14 39  1  0  0  0  0
 15 40  1  0  0  0  0
 17 41  1  0  0  0  0
 19 42  1  0  0  0  0
 19 43  1  0  0  0  0
 19 44  1  0  0  0  0
 20 45  1  0  0  0  0
 20 46  1  0  0  0  0
 20 47  1  0  0  0  0
M  CHG  1   1   1
M  END
