34

C          1.04060        0.24422       -0.08936
N          0.13710        0.23402        1.09004
C          0.59905       -0.67609        2.11158
C          0.55180       -0.05313        3.28890
N          0.09575        1.23262        3.15664
C         -0.01459        1.58848        1.76428
C          0.19173        2.27487        4.17043
C         -1.19389        2.72726        4.63632
C         -1.97865        1.66434        5.41776
C         -1.30416        1.19146        6.68267
C         -1.03170       -0.17102        6.87058
C         -0.40748       -0.61664        8.03708
C         -0.05630        0.29301        9.03166
C         -0.33768        1.64691        8.86515
C         -0.96366        2.09391        7.70019
H          0.64177        0.96257       -0.81101
H          1.04439       -0.75667       -0.53126
H          2.04777        0.53567        0.22508
H         -0.80926       -0.04441        0.80937
H          0.91865       -1.70182        1.95574
H          0.83011       -0.44925        4.25947
H         -0.99557        1.99160        1.49478
H          0.79944        2.24378        1.43427
H          0.79618        1.93523        5.01956
H          0.72246        3.13831        3.75027
H         -1.07473        3.62551        5.25411
H         -1.79252        3.02974        3.76792
H         -2.95904        2.07457        5.69202
H         -2.18594        0.81180        4.75930
H         -1.31245       -0.90006        6.11463
H         -0.20501       -1.67545        8.17801
H          0.42296       -0.05430        9.94379
H         -0.07917        2.35425        9.64968
H         -1.19169        3.15293        7.60342
