 xtb: 6.7.1 (edcfbbe)
          12202406433D

 25 26  0     0  0            999 V2000
    1.2018   -0.3692    0.2909 C   0  0  0  0  0  0  0  0  0  0  0  0
    0.9797    0.8791   -0.2653 C   0  0  0  0  0  0  0  0  0  0  0  0
   -0.3129    1.3094   -0.5120 C   0  0  0  0  0  0  0  0  0  0  0  0
   -1.3886    0.4851   -0.2109 C   0  0  0  0  0  0  0  0  0  0  0  0
   -1.1627   -0.7664    0.3483 C   0  0  0  0  0  0  0  0  0  0  0  0
    0.1303   -1.1927    0.5949 C   0  0  0  0  0  0  0  0  0  0  0  0
   -2.8089    0.9554   -0.4579 C   0  0  0  0  0  0  0  0  0  0  0  0
   -3.3861    1.4032    0.8030 N   0  0  0  0  0  0  0  0  0  0  0  0
   -3.0413    2.6025    1.2870 C   0  0  0  0  0  0  0  0  0  0  0  0
   -3.4955    3.0360    2.5143 C   0  0  0  0  0  0  0  0  0  0  0  0
   -4.3217    2.2075    3.2641 C   0  0  0  0  0  0  0  0  0  0  0  0
   -4.6647    0.9658    2.7464 C   0  0  0  0  0  0  0  0  0  0  0  0
   -4.1795    0.5922    1.5092 C   0  0  0  0  0  0  0  0  0  0  0  0
    2.2093   -0.7029    0.4828 H   0  0  0  0  0  0  0  0  0  0  0  0
    1.8118    1.5198   -0.5113 H   0  0  0  0  0  0  0  0  0  0  0  0
   -0.4774    2.2782   -0.9610 H   0  0  0  0  0  0  0  0  0  0  0  0
   -1.9937   -1.4172    0.5793 H   0  0  0  0  0  0  0  0  0  0  0  0
    0.2994   -2.1692    1.0209 H   0  0  0  0  0  0  0  0  0  0  0  0
   -2.8127    1.7852   -1.1671 H   0  0  0  0  0  0  0  0  0  0  0  0
   -3.4160    0.1424   -0.8593 H   0  0  0  0  0  0  0  0  0  0  0  0
   -2.3910    3.2108    0.6761 H   0  0  0  0  0  0  0  0  0  0  0  0
   -3.2062    4.0095    2.8762 H   0  0  0  0  0  0  0  0  0  0  0  0
   -4.6909    2.5240    4.2268 H   0  0  0  0  0  0  0  0  0  0  0  0
   -5.3046    0.2916    3.2928 H   0  0  0  0  0  0  0  0  0  0  0  0
   -4.4304   -0.3629    1.0719 H   0  0  0  0  0  0  0  0  0  0  0  0
  1  2  4  0  0  0  0
  2  3  4  0  0  0  0
  3  4  4  0  0  0  0
  4  5  4  0  0  0  0
  1  6  4  0  0  0  0
  5  6  4  0  0  0  0
  4  7  1  0  0  0  0
  7  8  1  0  0  0  0
  8  9  4  0  0  0  0
  9 10  4  0  0  0  0
 10 11  4  0  0  0  0
 11 12  4  0  0  0  0
  8 13  4  0  0  0  0
 12 13  4  0  0  0  0
  1 14  1  0  0  0  0
  2 15  1  0  0  0  0
  3 16  1  0  0  0  0
  5 17  1  0  0  0  0
  6 18  1  0  0  0  0
  7 19  1  0  0  0  0
  7 20  1  0  0  0  0
  9 21  1  0  0  0  0
 10 22  1  0  0  0  0
 11 23  1  0  0  0  0
 12 24  1  0  0  0  0
 13 25  1  0  0  0  0
M  CHG  1   1   1
M  END
