 xtb: 6.7.1 (edcfbbe)
          12202406433D

 72 71  0     0  0            999 V2000
    1.3029    0.8460   -0.7318 C   0  0  0  0  0  0  0  0  0  0  0  0
    1.2235   -0.3223   -1.7071 C   0  0  0  0  0  0  0  0  0  0  0  0
    1.4583   -1.6799   -1.0433 C   0  0  0  0  0  0  0  0  0  0  0  0
    0.4274   -2.0688    0.0187 C   0  0  0  0  0  0  0  0  0  0  0  0
   -1.0196   -2.1356   -0.4745 C   0  0  0  0  0  0  0  0  0  0  0  0
   -1.2584   -3.0778   -1.6558 C   0  0  0  0  0  0  0  0  0  0  0  0
   -0.8619   -4.5346   -1.4115 C   0  0  0  0  0  0  0  0  0  0  0  0
   -1.6141   -5.2294   -0.2748 C   0  0  0  0  0  0  0  0  0  0  0  0
   -3.1336   -5.2926   -0.4459 C   0  0  0  0  0  0  0  0  0  0  0  0
   -3.6124   -5.9421   -1.7459 C   0  0  0  0  0  0  0  0  0  0  0  0
   -3.1023   -7.3641   -1.9846 C   0  0  0  0  0  0  0  0  0  0  0  0
   -3.5171   -8.3872   -0.9258 C   0  0  0  0  0  0  0  0  0  0  0  0
   -5.0266   -8.5923   -0.7804 C   0  0  0  0  0  0  0  0  0  0  0  0
   -5.7516   -8.9936   -2.0673 C   0  0  0  0  0  0  0  0  0  0  0  0
   -5.1928  -10.2337   -2.7685 C   0  0  0  0  0  0  0  0  0  0  0  0
   -5.1918  -11.5116   -1.9263 C   0  0  0  0  0  0  0  0  0  0  0  0
   -6.5899  -12.0197   -1.5532 C   0  0  0  0  0  0  0  0  0  0  0  0
   -7.3955  -12.5420   -2.7502 C   0  0  0  0  0  0  0  0  0  0  0  0
   -7.5176  -14.0276   -2.8577 N   0  0  0  0  0  0  0  0  0  0  0  0
   -8.1969  -14.6427   -1.6778 C   0  0  0  0  0  0  0  0  0  0  0  0
   -9.3936  -13.8714   -1.1104 C   0  0  0  0  0  0  0  0  0  0  0  0
  -10.3357  -13.6138   -2.1260 O   0  0  0  0  0  0  0  0  0  0  0  0
   -8.3005  -14.3281   -4.0762 C   0  0  0  0  0  0  0  0  0  0  0  0
   -6.1859  -14.6434   -3.0031 C   0  0  0  0  0  0  0  0  0  0  0  0
    0.4952    0.8066   -0.0056 H   0  0  0  0  0  0  0  0  0  0  0  0
    1.2294    1.7897   -1.2676 H   0  0  0  0  0  0  0  0  0  0  0  0
    2.2495    0.8300   -0.1957 H   0  0  0  0  0  0  0  0  0  0  0  0
    0.2523   -0.3149   -2.2049 H   0  0  0  0  0  0  0  0  0  0  0  0
    1.9848   -0.1877   -2.4798 H   0  0  0  0  0  0  0  0  0  0  0  0
    1.4842   -2.4477   -1.8196 H   0  0  0  0  0  0  0  0  0  0  0  0
    2.4431   -1.6682   -0.5687 H   0  0  0  0  0  0  0  0  0  0  0  0
    0.7130   -3.0396    0.4302 H   0  0  0  0  0  0  0  0  0  0  0  0
    0.4730   -1.3511    0.8402 H   0  0  0  0  0  0  0  0  0  0  0  0
   -1.6512   -2.4395    0.3636 H   0  0  0  0  0  0  0  0  0  0  0  0
   -1.3439   -1.1354   -0.7690 H   0  0  0  0  0  0  0  0  0  0  0  0
   -2.3169   -3.0310   -1.9216 H   0  0  0  0  0  0  0  0  0  0  0  0
   -0.6978   -2.7150   -2.5197 H   0  0  0  0  0  0  0  0  0  0  0  0
   -1.0166   -5.0902   -2.3393 H   0  0  0  0  0  0  0  0  0  0  0  0
    0.2057   -4.5817   -1.1888 H   0  0  0  0  0  0  0  0  0  0  0  0
   -1.2199   -6.2437   -0.1750 H   0  0  0  0  0  0  0  0  0  0  0  0
   -1.4009   -4.7137    0.6634 H   0  0  0  0  0  0  0  0  0  0  0  0
   -3.5507   -5.8348    0.4062 H   0  0  0  0  0  0  0  0  0  0  0  0
   -3.5402   -4.2802   -0.4062 H   0  0  0  0  0  0  0  0  0  0  0  0
   -4.7051   -5.9421   -1.7471 H   0  0  0  0  0  0  0  0  0  0  0  0
   -3.2949   -5.3255   -2.5887 H   0  0  0  0  0  0  0  0  0  0  0  0
   -3.4522   -7.6925   -2.9661 H   0  0  0  0  0  0  0  0  0  0  0  0
   -2.0121   -7.3481   -2.0268 H   0  0  0  0  0  0  0  0  0  0  0  0
   -3.0414   -9.3413   -1.1664 H   0  0  0  0  0  0  0  0  0  0  0  0
   -3.1257   -8.0747    0.0435 H   0  0  0  0  0  0  0  0  0  0  0  0
   -5.1983   -9.3485   -0.0098 H   0  0  0  0  0  0  0  0  0  0  0  0
   -5.4779   -7.6672   -0.4188 H   0  0  0  0  0  0  0  0  0  0  0  0
   -6.8098   -9.1424   -1.8369 H   0  0  0  0  0  0  0  0  0  0  0  0
   -5.6998   -8.1644   -2.7738 H   0  0  0  0  0  0  0  0  0  0  0  0
   -5.7638  -10.3900   -3.6879 H   0  0  0  0  0  0  0  0  0  0  0  0
   -4.1639  -10.0331   -3.0668 H   0  0  0  0  0  0  0  0  0  0  0  0
   -4.6426  -12.2831   -2.4704 H   0  0  0  0  0  0  0  0  0  0  0  0
   -4.6453  -11.3190   -1.0035 H   0  0  0  0  0  0  0  0  0  0  0  0
   -6.4939  -12.7862   -0.7839 H   0  0  0  0  0  0  0  0  0  0  0  0
   -7.1355  -11.1923   -1.1002 H   0  0  0  0  0  0  0  0  0  0  0  0
   -8.4109  -12.1458   -2.7404 H   0  0  0  0  0  0  0  0  0  0  0  0
   -6.9187  -12.1969   -3.6695 H   0  0  0  0  0  0  0  0  0  0  0  0
   -8.5361  -15.6336   -1.9855 H   0  0  0  0  0  0  0  0  0  0  0  0
   -7.4731  -14.7635   -0.8708 H   0  0  0  0  0  0  0  0  0  0  0  0
   -9.8229  -14.5056   -0.3254 H   0  0  0  0  0  0  0  0  0  0  0  0
   -9.0660  -12.9335   -0.6432 H   0  0  0  0  0  0  0  0  0  0  0  0
  -11.1838  -13.3765   -1.7370 H   0  0  0  0  0  0  0  0  0  0  0  0
   -7.8497  -13.8445   -4.9401 H   0  0  0  0  0  0  0  0  0  0  0  0
   -8.3218  -15.4021   -4.2505 H   0  0  0  0  0  0  0  0  0  0  0  0
   -9.3208  -13.9716   -3.9524 H   0  0  0  0  0  0  0  0  0  0  0  0
   -5.7059  -14.2729   -3.9072 H   0  0  0  0  0  0  0  0  0  0  0  0
   -5.5564  -14.4058   -2.1490 H   0  0  0  0  0  0  0  0  0  0  0  0
   -6.2803  -15.7256   -3.0773 H   0  0  0  0  0  0  0  0  0  0  0  0
  1  2  1  0  0  0  0
  2  3  1  0  0  0  0
  3  4  1  0  0  0  0
  4  5  1  0  0  0  0
  5  6  1  0  0  0  0
  6  7  1  0  0  0  0
  7  8  1  0  0  0  0
  8  9  1  0  0  0  0
  9 10  1  0  0  0  0
 10 11  1  0  0  0  0
 11 12  1  0  0  0  0
 12 13  1  0  0  0  0
 13 14  1  0  0  0  0
 14 15  1  0  0  0  0
 15 16  1  0  0  0  0
 16 17  1  0  0  0  0
 17 18  1  0  0  0  0
 18 19  1  0  0  0  0
 19 20  1  0  0  0  0
 20 21  1  0  0  0  0
 21 22  1  0  0  0  0
 19 23  1  0  0  0  0
 19 24  1  0  0  0  0
  1 25  1  0  0  0  0
  1 26  1  0  0  0  0
  1 27  1  0  0  0  0
  2 28  1  0  0  0  0
  2 29  1  0  0  0  0
  3 30  1  0  0  0  0
  3 31  1  0  0  0  0
  4 32  1  0  0  0  0
  4 33  1  0  0  0  0
  5 34  1  0  0  0  0
  5 35  1  0  0  0  0
  6 36  1  0  0  0  0
  6 37  1  0  0  0  0
  7 38  1  0  0  0  0
  7 39  1  0  0  0  0
  8 40  1  0  0  0  0
  8 41  1  0  0  0  0
  9 42  1  0  0  0  0
  9 43  1  0  0  0  0
 10 44  1  0  0  0  0
 10 45  1  0  0  0  0
 11 46  1  0  0  0  0
 11 47  1  0  0  0  0
 12 48  1  0  0  0  0
 12 49  1  0  0  0  0
 13 50  1  0  0  0  0
 13 51  1  0  0  0  0
 14 52  1  0  0  0  0
 14 53  1  0  0  0  0
 15 54  1  0  0  0  0
 15 55  1  0  0  0  0
 16 56  1  0  0  0  0
 16 57  1  0  0  0  0
 17 58  1  0  0  0  0
 17 59  1  0  0  0  0
 18 60  1  0  0  0  0
 18 61  1  0  0  0  0
 20 62  1  0  0  0  0
 20 63  1  0  0  0  0
 21 64  1  0  0  0  0
 21 65  1  0  0  0  0
 22 66  1  0  0  0  0
 23 67  1  0  0  0  0
 23 68  1  0  0  0  0
 23 69  1  0  0  0  0
 24 70  1  0  0  0  0
 24 71  1  0  0  0  0
 24 72  1  0  0  0  0
M  CHG  1   1   1
M  END
