 xtb: 6.7.1 (edcfbbe)
          12202406433D

 33 33  0     0  0            999 V2000
    0.3514   -0.1054   -0.2832 C   0  0  0  0  0  0  0  0  0  0  0  0
   -0.1050    1.2956    0.0810 C   0  0  0  0  0  0  0  0  0  0  0  0
    0.5725    2.2925   -0.7212 O   0  0  0  0  0  0  0  0  0  0  0  0
    1.7685    2.6708   -0.3275 C   0  0  0  0  0  0  0  0  0  0  0  0
    2.3690    2.3126    0.6370 O   0  0  0  0  0  0  0  0  0  0  0  0
    2.3663    3.7475   -1.2891 C   0  0  0  0  0  0  0  0  0  0  0  0
    2.3437    3.3811   -2.6804 N   0  0  0  0  0  0  0  0  0  0  0  0
    3.5008    3.2378   -3.3488 C   0  0  0  0  0  0  0  0  0  0  0  0
    3.5165    2.9446   -4.6930 C   0  0  0  0  0  0  0  0  0  0  0  0
    2.3117    2.8063   -5.3751 C   0  0  0  0  0  0  0  0  0  0  0  0
    1.1292    2.9544   -4.6671 C   0  0  0  0  0  0  0  0  0  0  0  0
    1.1708    3.2408   -3.3158 C   0  0  0  0  0  0  0  0  0  0  0  0
    1.5521    5.0639   -1.0632 C   0  0  0  0  0  0  0  0  0  0  0  0
    0.8073    5.4943   -1.8979 O   0  0  0  0  0  0  0  0  0  0  0  0
    1.8283    5.5442    0.1120 O   0  0  0  0  0  0  0  0  0  0  0  0
    1.1764    6.7628    0.5426 C   0  0  0  0  0  0  0  0  0  0  0  0
    2.1489    7.5498    1.3980 C   0  0  0  0  0  0  0  0  0  0  0  0
    0.1937   -0.2991   -1.3416 H   0  0  0  0  0  0  0  0  0  0  0  0
   -0.2234   -0.8243    0.2921 H   0  0  0  0  0  0  0  0  0  0  0  0
    1.4044   -0.2372   -0.0462 H   0  0  0  0  0  0  0  0  0  0  0  0
   -1.1624    1.4435   -0.1409 H   0  0  0  0  0  0  0  0  0  0  0  0
    0.0933    1.5052    1.1349 H   0  0  0  0  0  0  0  0  0  0  0  0
    3.3919    3.9157   -0.9480 H   0  0  0  0  0  0  0  0  0  0  0  0
    4.4165    3.3615   -2.7896 H   0  0  0  0  0  0  0  0  0  0  0  0
    4.4606    2.8328   -5.2018 H   0  0  0  0  0  0  0  0  0  0  0  0
    2.3012    2.5866   -6.4312 H   0  0  0  0  0  0  0  0  0  0  0  0
    0.1724    2.8534   -5.1536 H   0  0  0  0  0  0  0  0  0  0  0  0
    0.2684    3.3537   -2.7379 H   0  0  0  0  0  0  0  0  0  0  0  0
    0.8591    7.3228   -0.3416 H   0  0  0  0  0  0  0  0  0  0  0  0
    0.2941    6.4694    1.1185 H   0  0  0  0  0  0  0  0  0  0  0  0
    3.0096    7.8638    0.8140 H   0  0  0  0  0  0  0  0  0  0  0  0
    1.6490    8.4314    1.7869 H   0  0  0  0  0  0  0  0  0  0  0  0
    2.4914    6.9424    2.2309 H   0  0  0  0  0  0  0  0  0  0  0  0
  1  2  1  0  0  0  0
  2  3  1  0  0  0  0
  3  4  1  0  0  0  0
  4  5  2  0  0  0  0
  4  6  1  0  0  0  0
  6  7  1  0  0  0  0
  7  8  4  0  0  0  0
  8  9  4  0  0  0  0
  9 10  4  0  0  0  0
 10 11  4  0  0  0  0
  7 12  4  0  0  0  0
 11 12  4  0  0  0  0
  6 13  1  0  0  0  0
 13 14  2  0  0  0  0
 13 15  4  0  0  0  0
 15 16  1  0  0  0  0
 16 17  1  0  0  0  0
  1 18  1  0  0  0  0
  1 19  1  0  0  0  0
  1 20  1  0  0  0  0
  2 21  1  0  0  0  0
  2 22  1  0  0  0  0
  6 23  1  0  0  0  0
  8 24  1  0  0  0  0
  9 25  1  0  0  0  0
 10 26  1  0  0  0  0
 11 27  1  0  0  0  0
 12 28  1  0  0  0  0
 16 29  1  0  0  0  0
 16 30  1  0  0  0  0
 17 31  1  0  0  0  0
 17 32  1  0  0  0  0
 17 33  1  0  0  0  0
M  CHG  1   1   1
M  END
