 xtb: 6.7.1 (edcfbbe)
          12202406433D

 29 28  0     0  0            999 V2000
    0.9151    0.1930    0.0823 C   0  0  0  0  0  0  0  0  0  0  0  0
    0.6944   -1.0194   -0.8166 C   0  0  0  0  0  0  0  0  0  0  0  0
    1.2671   -2.3183   -0.2412 C   0  0  0  0  0  0  0  0  0  0  0  0
    0.6946   -2.7054    1.1185 C   0  0  0  0  0  0  0  0  0  0  0  0
   -0.7932   -2.7969    1.0956 N   0  0  0  0  0  0  0  0  0  0  0  0
   -1.3711   -3.9170    0.2995 C   0  0  0  0  0  0  0  0  0  0  0  0
   -1.0833   -5.2765    0.9280 C   0  0  0  0  0  0  0  0  0  0  0  0
   -1.5454   -5.4058    2.3827 C   0  0  0  0  0  0  0  0  0  0  0  0
   -3.0418   -5.1761    2.5680 C   0  0  0  0  0  0  0  0  0  0  0  0
    0.3434    0.1409    1.0073 H   0  0  0  0  0  0  0  0  0  0  0  0
    0.6133    1.0970   -0.4387 H   0  0  0  0  0  0  0  0  0  0  0  0
    1.9678    0.2899    0.3340 H   0  0  0  0  0  0  0  0  0  0  0  0
   -0.3703   -1.1278   -1.0475 H   0  0  0  0  0  0  0  0  0  0  0  0
    1.1953   -0.8377   -1.7677 H   0  0  0  0  0  0  0  0  0  0  0  0
    1.1241   -3.1278   -0.9579 H   0  0  0  0  0  0  0  0  0  0  0  0
    2.3430   -2.1983   -0.1099 H   0  0  0  0  0  0  0  0  0  0  0  0
    1.0996   -3.6644    1.4403 H   0  0  0  0  0  0  0  0  0  0  0  0
    0.9687   -1.9517    1.8585 H   0  0  0  0  0  0  0  0  0  0  0  0
   -1.1376   -2.9091    2.0569 H   0  0  0  0  0  0  0  0  0  0  0  0
   -1.1384   -1.9051    0.7203 H   0  0  0  0  0  0  0  0  0  0  0  0
   -2.4497   -3.7613    0.2431 H   0  0  0  0  0  0  0  0  0  0  0  0
   -0.9656   -3.8740   -0.7111 H   0  0  0  0  0  0  0  0  0  0  0  0
   -1.6068   -6.0210    0.3273 H   0  0  0  0  0  0  0  0  0  0  0  0
   -0.0196   -5.5079    0.8623 H   0  0  0  0  0  0  0  0  0  0  0  0
   -1.3104   -6.4194    2.7085 H   0  0  0  0  0  0  0  0  0  0  0  0
   -0.9779   -4.7353    3.0362 H   0  0  0  0  0  0  0  0  0  0  0  0
   -3.6083   -5.8225    1.9031 H   0  0  0  0  0  0  0  0  0  0  0  0
   -3.3273   -5.4162    3.5881 H   0  0  0  0  0  0  0  0  0  0  0  0
   -3.3360   -4.1451    2.3788 H   0  0  0  0  0  0  0  0  0  0  0  0
  1  2  1  0  0  0  0
  2  3  1  0  0  0  0
  3  4  1  0  0  0  0
  4  5  1  0  0  0  0
  5  6  1  0  0  0  0
  6  7  1  0  0  0  0
  7  8  1  0  0  0  0
  8  9  1  0  0  0  0
  1 10  1  0  0  0  0
  1 11  1  0  0  0  0
  1 12  1  0  0  0  0
  2 13  1  0  0  0  0
  2 14  1  0  0  0  0
  3 15  1  0  0  0  0
  3 16  1  0  0  0  0
  4 17  1  0  0  0  0
  4 18  1  0  0  0  0
  5 19  1  0  0  0  0
  5 20  1  0  0  0  0
  6 21  1  0  0  0  0
  6 22  1  0  0  0  0
  7 23  1  0  0  0  0
  7 24  1  0  0  0  0
  8 25  1  0  0  0  0
  8 26  1  0  0  0  0
  9 27  1  0  0  0  0
  9 28  1  0  0  0  0
  9 29  1  0  0  0  0
M  CHG  1   1   1
M  END
