45

C          1.26977       -0.21286        0.28617
C          0.88965        1.24908        0.10706
N          1.21021        1.82993       -1.29120
C          0.65957        0.97631       -2.47701
C         -0.86864        0.89632       -2.83751
C         -1.46083        2.09246       -3.64660
C         -1.19707        2.31226       -5.17174
C         -2.01566        1.33718       -6.04127
C         -1.69170        3.74079       -5.51305
C          0.27970        2.22982       -5.57044
O         -1.04389       -0.31479       -3.59343
C         -1.76631        0.66876       -1.61247
C          0.69411        3.28050       -1.39096
C          1.37826        4.26532       -0.45252
C          2.74880        1.83841       -1.46944
H          0.69685       -0.87935       -0.36226
H          1.05859       -0.51600        1.31765
H          2.33497       -0.38715        0.11321
H         -0.17023        1.40859        0.30874
H          1.45011        1.84303        0.83652
H          1.20667        1.32790       -3.35388
H          1.03781       -0.04064       -2.31872
H         -2.55629        2.02702       -3.55534
H         -1.21237        3.01889       -3.12346
H         -3.07440        1.34659       -5.75936
H         -1.95781        1.61610       -7.10038
H         -1.65969        0.30737       -5.97215
H         -1.12982        4.49827       -4.95443
H         -1.57135        3.96220       -6.57978
H         -2.75292        3.86149       -5.26689
H          0.89253        2.90505       -4.96391
H          0.67291        1.21393       -5.47423
H          0.42026        2.52078       -6.61842
H         -0.52381       -0.28636       -4.41341
H         -1.40835       -0.16752       -1.00476
H         -1.86258        1.56167       -0.99123
H         -2.77928        0.38248       -1.92437
H          0.84576        3.60217       -2.42684
H         -0.37413        3.25853       -1.16358
H          2.44341        4.37571       -0.67347
H          0.92485        5.25496       -0.57722
H          1.26179        3.99009        0.59845
H          3.21055        2.25246       -0.56936
H          3.09052        0.81152       -1.62576
H          2.98898        2.44773       -2.34614
