 xtb: 6.7.1 (edcfbbe)
          12202406443D

 37 36  0     0  0            999 V2000
    0.6257    0.7379    0.1157 C   0  0  0  0  0  0  0  0  0  0  0  0
    0.5721    1.7800   -0.9952 C   0  0  0  0  0  0  0  0  0  0  0  0
    1.0963    1.2693   -2.3386 C   0  0  0  0  0  0  0  0  0  0  0  0
    0.3215    0.0824   -2.9151 C   0  0  0  0  0  0  0  0  0  0  0  0
   -1.1026    0.3347   -3.1228 N   0  0  0  0  0  0  0  0  0  0  0  0
   -1.5893    1.4693   -3.6481 C   0  0  0  0  0  0  0  0  0  0  0  0
   -2.7852    1.9393   -3.2519 N   0  0  0  0  0  0  0  0  0  0  0  0
   -3.6715    2.6557   -4.1461 C   0  0  0  0  0  0  0  0  0  0  0  0
   -3.3067    1.7711   -1.9116 C   0  0  0  0  0  0  0  0  0  0  0  0
   -0.9053    2.1374   -4.5931 N   0  0  0  0  0  0  0  0  0  0  0  0
   -0.8951    3.5840   -4.6726 C   0  0  0  0  0  0  0  0  0  0  0  0
   -0.1003    1.4700   -5.5930 C   0  0  0  0  0  0  0  0  0  0  0  0
   -1.9785   -0.7591   -2.7475 C   0  0  0  0  0  0  0  0  0  0  0  0
   -0.0641   -0.0837   -0.0630 H   0  0  0  0  0  0  0  0  0  0  0  0
    0.3613    1.1935    1.0660 H   0  0  0  0  0  0  0  0  0  0  0  0
    1.6296    0.3309    0.2048 H   0  0  0  0  0  0  0  0  0  0  0  0
   -0.4497    2.1495   -1.1101 H   0  0  0  0  0  0  0  0  0  0  0  0
    1.1880    2.6318   -0.7025 H   0  0  0  0  0  0  0  0  0  0  0  0
    1.1119    2.0986   -3.0457 H   0  0  0  0  0  0  0  0  0  0  0  0
    2.1264    0.9343   -2.2073 H   0  0  0  0  0  0  0  0  0  0  0  0
    0.8020   -0.2491   -3.8405 H   0  0  0  0  0  0  0  0  0  0  0  0
    0.3815   -0.7436   -2.2062 H   0  0  0  0  0  0  0  0  0  0  0  0
   -4.6753    2.2408   -4.0407 H   0  0  0  0  0  0  0  0  0  0  0  0
   -3.7196    3.7198   -3.9081 H   0  0  0  0  0  0  0  0  0  0  0  0
   -3.3563    2.5281   -5.1775 H   0  0  0  0  0  0  0  0  0  0  0  0
   -4.1649    1.0968   -1.8942 H   0  0  0  0  0  0  0  0  0  0  0  0
   -2.5394    1.3935   -1.2434 H   0  0  0  0  0  0  0  0  0  0  0  0
   -3.6357    2.7451   -1.5440 H   0  0  0  0  0  0  0  0  0  0  0  0
    0.1392    3.9191   -4.7688 H   0  0  0  0  0  0  0  0  0  0  0  0
   -1.4493    3.9493   -5.5391 H   0  0  0  0  0  0  0  0  0  0  0  0
   -1.3105    4.0169   -3.7671 H   0  0  0  0  0  0  0  0  0  0  0  0
   -0.3889    0.4253   -5.6749 H   0  0  0  0  0  0  0  0  0  0  0  0
   -0.2837    1.9503   -6.5552 H   0  0  0  0  0  0  0  0  0  0  0  0
    0.9686    1.5409   -5.3782 H   0  0  0  0  0  0  0  0  0  0  0  0
   -1.5905   -1.6809   -3.1845 H   0  0  0  0  0  0  0  0  0  0  0  0
   -2.0310   -0.8904   -1.6654 H   0  0  0  0  0  0  0  0  0  0  0  0
   -2.9785   -0.5956   -3.1390 H   0  0  0  0  0  0  0  0  0  0  0  0
  1  2  1  0  0  0  0
  2  3  1  0  0  0  0
  3  4  1  0  0  0  0
  4  5  1  0  0  0  0
  5  6  4  0  0  0  0
  6  7  4  0  0  0  0
  7  8  1  0  0  0  0
  7  9  1  0  0  0  0
  6 10  4  0  0  0  0
 10 11  1  0  0  0  0
 10 12  1  0  0  0  0
  5 13  1  0  0  0  0
  1 14  1  0  0  0  0
  1 15  1  0  0  0  0
  1 16  1  0  0  0  0
  2 17  1  0  0  0  0
  2 18  1  0  0  0  0
  3 19  1  0  0  0  0
  3 20  1  0  0  0  0
  4 21  1  0  0  0  0
  4 22  1  0  0  0  0
  8 23  1  0  0  0  0
  8 24  1  0  0  0  0
  8 25  1  0  0  0  0
  9 26  1  0  0  0  0
  9 27  1  0  0  0  0
  9 28  1  0  0  0  0
 11 29  1  0  0  0  0
 11 30  1  0  0  0  0
 11 31  1  0  0  0  0
 12 32  1  0  0  0  0
 12 33  1  0  0  0  0
 12 34  1  0  0  0  0
 13 35  1  0  0  0  0
 13 36  1  0  0  0  0
 13 37  1  0  0  0  0
M  CHG  1   1   1
M  END
