30

C          0.64139        0.33961       -0.46582
C          0.34764       -0.51840        0.52051
C         -1.02336       -0.78872        1.05324
N         -1.45779       -2.09832        0.57775
C         -2.35092       -2.26394       -0.40644
N         -2.60746       -3.57850       -0.54203
C         -1.77232       -4.29448        0.31491
C         -1.04785       -3.34169        1.04588
C         -0.12057       -3.70266        2.02040
C          0.06381       -5.07728        2.21759
C         -0.65844       -6.03452        1.47987
C         -1.60230       -5.66320        0.51195
C         -3.61289       -4.13244       -1.46635
C         -5.02012       -4.14587       -0.87010
C         -5.48312       -2.76920       -0.69636
N         -5.72454       -1.64096       -0.57409
H         -0.11676        0.91678       -0.98620
H          1.67386        0.49171       -0.77407
H          1.16876       -1.04218        1.00466
H         -1.02598       -0.78058        2.14796
H         -1.74243       -0.03321        0.71630
H         -2.81549       -1.46579       -0.97563
H          0.43410       -2.96536        2.58691
H          0.78784       -5.41642        2.95980
H         -0.47524       -7.09336        1.66840
H         -2.15572       -6.40258       -0.05267
H         -3.57850       -3.54041       -2.38945
H         -3.31517       -5.15264       -1.73160
H         -5.69856       -4.68580       -1.53887
H         -5.01724       -4.66508        0.09437
