 xtb: 6.7.1 (edcfbbe)
          12202406433D

 58 58  0     0  0            999 V2000
    1.2718   -0.1848   -0.0272 C   0  0  0  0  0  0  0  0  0  0  0  0
    0.4909   -1.4525    0.1325 C   0  0  0  0  0  0  0  0  0  0  0  0
   -0.5656   -1.5840    0.9324 C   0  0  0  0  0  0  0  0  0  0  0  0
    0.9545   -2.5538   -0.6283 C   0  0  0  0  0  0  0  0  0  0  0  0
    1.3746   -3.4808   -1.2713 C   0  0  0  0  0  0  0  0  0  0  0  0
    1.8587   -4.6154   -2.0273 C   0  0  0  0  0  0  0  0  0  0  0  0
    2.0580   -5.8256   -1.1591 N   0  0  0  0  0  0  0  0  0  0  0  0
    3.0735   -5.4833   -0.1248 C   0  0  0  0  0  0  0  0  0  0  0  0
    2.6815   -4.8873    1.0631 C   0  0  0  0  0  0  0  0  0  0  0  0
    3.6066   -4.4935    2.0141 C   0  0  0  0  0  0  0  0  0  0  0  0
    4.9726   -4.7272    1.7562 C   0  0  0  0  0  0  0  0  0  0  0  0
    5.3870   -5.3370    0.5585 C   0  0  0  0  0  0  0  0  0  0  0  0
    4.4196   -5.6869   -0.3726 C   0  0  0  0  0  0  0  0  0  0  0  0
    6.8656   -5.6372    0.2935 C   0  0  0  0  0  0  0  0  0  0  0  0
    7.3299   -6.7203    1.2854 C   0  0  0  0  0  0  0  0  0  0  0  0
    7.1043   -6.1995   -1.1144 C   0  0  0  0  0  0  0  0  0  0  0  0
    7.7220   -4.3526    0.4291 C   0  0  0  0  0  0  0  0  0  0  0  0
    5.8564   -4.3424    2.6929 O   0  0  0  0  0  0  0  0  0  0  0  0
    3.1569   -3.8123    3.3006 C   0  0  0  0  0  0  0  0  0  0  0  0
    3.7781   -2.4097    3.3668 C   0  0  0  0  0  0  0  0  0  0  0  0
    1.6353   -3.6465    3.3814 C   0  0  0  0  0  0  0  0  0  0  0  0
    3.5981   -4.6510    4.5080 C   0  0  0  0  0  0  0  0  0  0  0  0
    0.7685   -6.2038   -0.5466 C   0  0  0  0  0  0  0  0  0  0  0  0
    2.4946   -6.9514   -2.0072 C   0  0  0  0  0  0  0  0  0  0  0  0
    0.8762    0.5881    0.6249 H   0  0  0  0  0  0  0  0  0  0  0  0
    1.2171    0.1605   -1.0588 H   0  0  0  0  0  0  0  0  0  0  0  0
    2.3216   -0.3519    0.2113 H   0  0  0  0  0  0  0  0  0  0  0  0
   -1.1105   -2.5090    1.0185 H   0  0  0  0  0  0  0  0  0  0  0  0
   -0.9191   -0.7589    1.5247 H   0  0  0  0  0  0  0  0  0  0  0  0
    1.1430   -4.8700   -2.8160 H   0  0  0  0  0  0  0  0  0  0  0  0
    2.8208   -4.3651   -2.4842 H   0  0  0  0  0  0  0  0  0  0  0  0
    1.6453   -4.7049    1.2651 H   0  0  0  0  0  0  0  0  0  0  0  0
    4.7460   -6.1248   -1.2958 H   0  0  0  0  0  0  0  0  0  0  0  0
    6.8018   -7.6515    1.0909 H   0  0  0  0  0  0  0  0  0  0  0  0
    8.3943   -6.9021    1.1579 H   0  0  0  0  0  0  0  0  0  0  0  0
    7.1521   -6.4562    2.3248 H   0  0  0  0  0  0  0  0  0  0  0  0
    6.8049   -5.4886   -1.8817 H   0  0  0  0  0  0  0  0  0  0  0  0
    8.1671   -6.3937   -1.2365 H   0  0  0  0  0  0  0  0  0  0  0  0
    6.5879   -7.1448   -1.2654 H   0  0  0  0  0  0  0  0  0  0  0  0
    7.1096   -3.4538    0.3804 H   0  0  0  0  0  0  0  0  0  0  0  0
    8.3112   -4.3363    1.3455 H   0  0  0  0  0  0  0  0  0  0  0  0
    8.4360   -4.2967   -0.3888 H   0  0  0  0  0  0  0  0  0  0  0  0
    6.7614   -4.4737    2.3844 H   0  0  0  0  0  0  0  0  0  0  0  0
    3.4949   -1.8318    2.4891 H   0  0  0  0  0  0  0  0  0  0  0  0
    3.4180   -1.8918    4.2512 H   0  0  0  0  0  0  0  0  0  0  0  0
    4.8597   -2.4600    3.4208 H   0  0  0  0  0  0  0  0  0  0  0  0
    1.1262   -4.6080    3.3735 H   0  0  0  0  0  0  0  0  0  0  0  0
    1.3890   -3.1558    4.3195 H   0  0  0  0  0  0  0  0  0  0  0  0
    1.2566   -3.0218    2.5748 H   0  0  0  0  0  0  0  0  0  0  0  0
    3.1653   -5.6477    4.4537 H   0  0  0  0  0  0  0  0  0  0  0  0
    4.6773   -4.7404    4.5530 H   0  0  0  0  0  0  0  0  0  0  0  0
    3.2579   -4.1779    5.4249 H   0  0  0  0  0  0  0  0  0  0  0  0
    0.1040   -6.6083   -1.3085 H   0  0  0  0  0  0  0  0  0  0  0  0
    0.9331   -6.9568    0.2216 H   0  0  0  0  0  0  0  0  0  0  0  0
    0.2865   -5.3323   -0.1101 H   0  0  0  0  0  0  0  0  0  0  0  0
    3.3308   -6.6665   -2.6407 H   0  0  0  0  0  0  0  0  0  0  0  0
    2.7875   -7.7909   -1.3789 H   0  0  0  0  0  0  0  0  0  0  0  0
    1.6769   -7.2627   -2.6556 H   0  0  0  0  0  0  0  0  0  0  0  0
  1  2  1  0  0  0  0
  2  3  2  0  0  0  0
  2  4  1  0  0  0  0
  4  5  3  0  0  0  0
  5  6  1  0  0  0  0
  6  7  1  0  0  0  0
  7  8  1  0  0  0  0
  8  9  4  0  0  0  0
  9 10  4  0  0  0  0
 10 11  4  0  0  0  0
 11 12  4  0  0  0  0
  8 13  4  0  0  0  0
 12 13  4  0  0  0  0
 12 14  1  0  0  0  0
 14 15  1  0  0  0  0
 14 16  1  0  0  0  0
 14 17  1  0  0  0  0
 11 18  1  0  0  0  0
 10 19  1  0  0  0  0
 19 20  1  0  0  0  0
 19 21  1  0  0  0  0
 19 22  1  0  0  0  0
  7 23  1  0  0  0  0
  7 24  1  0  0  0  0
  1 25  1  0  0  0  0
  1 26  1  0  0  0  0
  1 27  1  0  0  0  0
  3 28  1  0  0  0  0
  3 29  1  0  0  0  0
  6 30  1  0  0  0  0
  6 31  1  0  0  0  0
  9 32  1  0  0  0  0
 13 33  1  0  0  0  0
 15 34  1  0  0  0  0
 15 35  1  0  0  0  0
 15 36  1  0  0  0  0
 16 37  1  0  0  0  0
 16 38  1  0  0  0  0
 16 39  1  0  0  0  0
 17 40  1  0  0  0  0
 17 41  1  0  0  0  0
 17 42  1  0  0  0  0
 18 43  1  0  0  0  0
 20 44  1  0  0  0  0
 20 45  1  0  0  0  0
 20 46  1  0  0  0  0
 21 47  1  0  0  0  0
 21 48  1  0  0  0  0
 21 49  1  0  0  0  0
 22 50  1  0  0  0  0
 22 51  1  0  0  0  0
 22 52  1  0  0  0  0
 23 53  1  0  0  0  0
 23 54  1  0  0  0  0
 23 55  1  0  0  0  0
 24 56  1  0  0  0  0
 24 57  1  0  0  0  0
 24 58  1  0  0  0  0
M  CHG  1   1   1
M  END
