 xtb: 6.7.1 (edcfbbe)
          12202406443D

 30 31  0     0  0            999 V2000
    0.6523    0.5513   -0.3884 C   0  0  0  0  0  0  0  0  0  0  0  0
    0.3925   -0.5309    0.3178 C   0  0  0  0  0  0  0  0  0  0  0  0
   -0.9483   -0.8097    0.9454 C   0  0  0  0  0  0  0  0  0  0  0  0
   -1.4650   -2.0896    0.5062 N   0  0  0  0  0  0  0  0  0  0  0  0
   -2.3095   -2.2863   -0.4944 C   0  0  0  0  0  0  0  0  0  0  0  0
   -2.5487   -3.5842   -0.6804 N   0  0  0  0  0  0  0  0  0  0  0  0
   -1.8210   -4.2838    0.2625 C   0  0  0  0  0  0  0  0  0  0  0  0
   -1.1166   -3.3239    1.0154 C   0  0  0  0  0  0  0  0  0  0  0  0
   -0.2709   -3.6994    2.0529 C   0  0  0  0  0  0  0  0  0  0  0  0
   -0.1586   -5.0499    2.3095 C   0  0  0  0  0  0  0  0  0  0  0  0
   -0.8598   -6.0023    1.5636 C   0  0  0  0  0  0  0  0  0  0  0  0
   -1.7008   -5.6420    0.5309 C   0  0  0  0  0  0  0  0  0  0  0  0
   -3.5264   -4.1322   -1.5912 C   0  0  0  0  0  0  0  0  0  0  0  0
   -4.9000   -4.2436   -0.9003 C   0  0  0  0  0  0  0  0  0  0  0  0
   -5.2259   -2.9712   -0.3021 C   0  0  0  0  0  0  0  0  0  0  0  0
   -5.3684   -1.9413    0.1702 N   0  0  0  0  0  0  0  0  0  0  0  0
   -0.0886    1.3144   -0.5607 H   0  0  0  0  0  0  0  0  0  0  0  0
    1.6272    0.7305   -0.8054 H   0  0  0  0  0  0  0  0  0  0  0  0
    1.1489   -1.2836    0.4907 H   0  0  0  0  0  0  0  0  0  0  0  0
   -0.8540   -0.8419    2.0348 H   0  0  0  0  0  0  0  0  0  0  0  0
   -1.6652   -0.0322    0.6761 H   0  0  0  0  0  0  0  0  0  0  0  0
   -2.7504   -1.4993   -1.0774 H   0  0  0  0  0  0  0  0  0  0  0  0
    0.2750   -2.9722    2.6311 H   0  0  0  0  0  0  0  0  0  0  0  0
    0.4872   -5.3838    3.1057 H   0  0  0  0  0  0  0  0  0  0  0  0
   -0.7386   -7.0463    1.8042 H   0  0  0  0  0  0  0  0  0  0  0  0
   -2.2347   -6.3858   -0.0377 H   0  0  0  0  0  0  0  0  0  0  0  0
   -3.5989   -3.4717   -2.4587 H   0  0  0  0  0  0  0  0  0  0  0  0
   -3.1914   -5.1167   -1.9225 H   0  0  0  0  0  0  0  0  0  0  0  0
   -5.6639   -4.5138   -1.6318 H   0  0  0  0  0  0  0  0  0  0  0  0
   -4.8829   -5.0043   -0.1152 H   0  0  0  0  0  0  0  0  0  0  0  0
  1  2  2  0  0  0  0
  2  3  1  0  0  0  0
  3  4  1  0  0  0  0
  4  5  4  0  0  0  0
  5  6  4  0  0  0  0
  6  7  1  0  0  0  0
  4  8  1  0  0  0  0
  7  8  4  0  0  0  0
  8  9  4  0  0  0  0
  9 10  4  0  0  0  0
 10 11  4  0  0  0  0
  7 12  4  0  0  0  0
 11 12  4  0  0  0  0
  6 13  1  0  0  0  0
 13 14  1  0  0  0  0
 14 15  1  0  0  0  0
 15 16  3  0  0  0  0
  1 17  1  0  0  0  0
  1 18  1  0  0  0  0
  2 19  1  0  0  0  0
  3 20  1  0  0  0  0
  3 21  1  0  0  0  0
  5 22  1  0  0  0  0
  9 23  1  0  0  0  0
 10 24  1  0  0  0  0
 11 25  1  0  0  0  0
 12 26  1  0  0  0  0
 13 27  1  0  0  0  0
 13 28  1  0  0  0  0
 14 29  1  0  0  0  0
 14 30  1  0  0  0  0
M  CHG  1   1   1
M  END
