 xtb: 6.7.1 (edcfbbe)
          12202406443D

 41 40  0     0  0            999 V2000
    2.2861    0.2549   -0.2758 C   0  0  0  0  0  0  0  0  0  0  0  0
    1.1795    1.1805    0.2153 C   0  0  0  0  0  0  0  0  0  0  0  0
    0.7857    2.2361   -0.8255 C   0  0  0  0  0  0  0  0  0  0  0  0
    0.0542    1.6583   -2.0459 C   0  0  0  0  0  0  0  0  0  0  0  0
   -1.4137    1.9313   -2.1352 N   0  0  0  0  0  0  0  0  0  0  0  0
   -1.6915    3.3918   -2.0670 C   0  0  0  0  0  0  0  0  0  0  0  0
   -0.7919    4.2751   -2.9560 C   0  0  0  0  0  0  0  0  0  0  0  0
   -0.3152    3.9165   -3.9987 O   0  0  0  0  0  0  0  0  0  0  0  0
   -0.6769    5.4572   -2.4020 O   0  0  0  0  0  0  0  0  0  0  0  0
    0.0921    6.4617   -3.0984 C   0  0  0  0  0  0  0  0  0  0  0  0
    1.5758    6.3111   -2.8099 C   0  0  0  0  0  0  0  0  0  0  0  0
   -1.9469    1.4432   -3.4602 C   0  0  0  0  0  0  0  0  0  0  0  0
   -1.3386    0.1761   -4.0456 C   0  0  0  0  0  0  0  0  0  0  0  0
   -2.1536    1.3203   -0.9840 C   0  0  0  0  0  0  0  0  0  0  0  0
   -2.2340   -0.1968   -0.9450 C   0  0  0  0  0  0  0  0  0  0  0  0
    1.9843   -0.3148   -1.1518 H   0  0  0  0  0  0  0  0  0  0  0  0
    2.5536   -0.4505    0.5056 H   0  0  0  0  0  0  0  0  0  0  0  0
    3.1736    0.8270   -0.5327 H   0  0  0  0  0  0  0  0  0  0  0  0
    0.3117    0.5886    0.5118 H   0  0  0  0  0  0  0  0  0  0  0  0
    1.5356    1.7012    1.1053 H   0  0  0  0  0  0  0  0  0  0  0  0
    0.2011    3.0143   -0.3367 H   0  0  0  0  0  0  0  0  0  0  0  0
    1.7022    2.7146   -1.1746 H   0  0  0  0  0  0  0  0  0  0  0  0
    0.4936    2.0506   -2.9628 H   0  0  0  0  0  0  0  0  0  0  0  0
    0.1793    0.5774   -2.0496 H   0  0  0  0  0  0  0  0  0  0  0  0
   -2.7234    3.5679   -2.3861 H   0  0  0  0  0  0  0  0  0  0  0  0
   -1.5992    3.7563   -1.0435 H   0  0  0  0  0  0  0  0  0  0  0  0
   -0.1046    6.3734   -4.1699 H   0  0  0  0  0  0  0  0  0  0  0  0
   -0.2927    7.4090   -2.7206 H   0  0  0  0  0  0  0  0  0  0  0  0
    1.9523    5.3777   -3.2217 H   0  0  0  0  0  0  0  0  0  0  0  0
    2.1120    7.1335   -3.2726 H   0  0  0  0  0  0  0  0  0  0  0  0
    1.7592    6.3328   -1.7384 H   0  0  0  0  0  0  0  0  0  0  0  0
   -3.0237    1.3146   -3.3361 H   0  0  0  0  0  0  0  0  0  0  0  0
   -1.7705    2.2392   -4.1848 H   0  0  0  0  0  0  0  0  0  0  0  0
   -1.3758   -0.6782   -3.3798 H   0  0  0  0  0  0  0  0  0  0  0  0
   -1.9195   -0.0732   -4.9309 H   0  0  0  0  0  0  0  0  0  0  0  0
   -0.3146    0.3328   -4.3699 H   0  0  0  0  0  0  0  0  0  0  0  0
   -1.6701    1.6729   -0.0718 H   0  0  0  0  0  0  0  0  0  0  0  0
   -3.1706    1.7189   -1.0043 H   0  0  0  0  0  0  0  0  0  0  0  0
   -1.2560   -0.6685   -0.9527 H   0  0  0  0  0  0  0  0  0  0  0  0
   -2.7196   -0.4729   -0.0116 H   0  0  0  0  0  0  0  0  0  0  0  0
   -2.8378   -0.5971   -1.7530 H   0  0  0  0  0  0  0  0  0  0  0  0
  1  2  1  0  0  0  0
  2  3  1  0  0  0  0
  3  4  1  0  0  0  0
  4  5  1  0  0  0  0
  5  6  1  0  0  0  0
  6  7  1  0  0  0  0
  7  8  2  0  0  0  0
  7  9  4  0  0  0  0
  9 10  1  0  0  0  0
 10 11  1  0  0  0  0
  5 12  1  0  0  0  0
 12 13  1  0  0  0  0
  5 14  1  0  0  0  0
 14 15  1  0  0  0  0
  1 16  1  0  0  0  0
  1 17  1  0  0  0  0
  1 18  1  0  0  0  0
  2 19  1  0  0  0  0
  2 20  1  0  0  0  0
  3 21  1  0  0  0  0
  3 22  1  0  0  0  0
  4 23  1  0  0  0  0
  4 24  1  0  0  0  0
  6 25  1  0  0  0  0
  6 26  1  0  0  0  0
 10 27  1  0  0  0  0
 10 28  1  0  0  0  0
 11 29  1  0  0  0  0
 11 30  1  0  0  0  0
 11 31  1  0  0  0  0
 12 32  1  0  0  0  0
 12 33  1  0  0  0  0
 13 34  1  0  0  0  0
 13 35  1  0  0  0  0
 13 36  1  0  0  0  0
 14 37  1  0  0  0  0
 14 38  1  0  0  0  0
 15 39  1  0  0  0  0
 15 40  1  0  0  0  0
 15 41  1  0  0  0  0
M  CHG  1   1   1
M  END
