58

O          1.76091        0.45852        0.31879
C          2.92103        0.23377        0.66292
N          3.47655       -0.98274        0.41367
C          4.74415       -1.24230        0.51717
C          5.65107       -0.11702        0.93826
C          5.03031        1.15971        1.43405
O          5.71769        2.07256        1.87046
N          3.66388        1.23158        1.27602
C          2.97642        2.42245        1.75949
C          3.26805        3.75310        1.04709
C          3.79192        3.73208       -0.38117
N          2.94166        3.12063       -1.40869
C          1.66325        2.72784       -1.28792
N          1.28895        2.12026       -2.42282
C          2.29242        2.24332       -3.36996
C          3.35125        2.89602       -2.72826
C          4.54154        3.19889       -3.38693
C          4.61684        2.81244       -4.73245
C          3.55318        2.14814       -5.37388
C          2.36179        1.84263       -4.70128
C          0.03737        1.39337       -2.57829
N          6.94388       -0.20019        0.87801
C          7.52098       -1.40520        0.45047
C          6.75600       -2.55512        0.16240
N          5.32744       -2.49127        0.26865
C          4.48591       -3.64481        0.18729
C          4.63591       -4.69986        1.10418
C          3.81930       -5.83047        1.03270
C          2.84161       -5.92191        0.04484
C          2.67721       -4.88396       -0.86997
C          3.49256       -3.75184       -0.79829
C          7.42777       -3.71230       -0.27422
C          8.81931       -3.73507       -0.39634
C          9.56308       -2.60059       -0.09284
C          8.91416       -1.44139        0.32696
H          1.89329        2.25614        1.75947
H          3.24381        2.53986        2.81852
H          2.36435        4.37379        1.09580
H          4.01390        4.29032        1.64873
H          3.96270        4.76833       -0.70028
H          4.76451        3.22932       -0.41551
H          1.03915        2.83157       -0.40964
H          5.35907        3.70905       -2.89282
H          5.52244        3.03158       -5.29994
H          3.66056        1.86735       -6.42247
H          1.54049        1.33367       -5.18961
H         -0.46271        1.71783       -3.49447
H          0.25411        0.32270       -2.62923
H         -0.61692        1.58956       -1.72471
H          5.38727       -4.64282        1.88899
H          3.94476       -6.63886        1.74932
H          2.20625       -6.80294       -0.01084
H          1.91361       -4.95732       -1.64017
H          3.35293       -2.95583       -1.52463
H          6.88114       -4.61268       -0.54473
H          9.32047       -4.64004       -0.73344
H         10.64652       -2.61568       -0.18513
H          9.49710       -0.55399        0.56333
