39

O          0.82102       -1.70487       -0.21874
C          1.78921       -0.94531       -0.24012
C          2.38185       -0.46392        1.04233
C          3.27372        0.61396        1.10734
C          3.89124        0.93582        2.31925
C          3.61018        0.19895        3.46860
C          2.69638       -0.85079        3.41763
C          2.08023       -1.18010        2.20982
C          2.48338       -0.59856       -1.55078
N          2.65175       -1.80623       -2.39828
C          3.32330       -2.91610       -2.01395
C          4.00576       -3.13975       -0.69877
N          3.28593       -3.79024       -3.04133
C          2.56875       -3.24980       -4.10054
C          2.13165       -1.98766       -3.67777
C          1.35179       -1.16153       -4.48684
C          1.05034       -1.66863       -5.76585
C          1.50411       -2.93437       -6.20189
C          2.27413       -3.75500       -5.36651
N          0.24557       -0.84313       -6.67800
O         -0.27089        0.17804       -6.20685
O          0.14975       -1.21686       -7.85231
C          3.89819       -5.11828       -3.00815
H          3.50923        1.23177        0.24613
H          4.59321        1.76636        2.37354
H          4.09485        0.45152        4.41007
H          2.46536       -1.41414        4.31972
H          1.37326       -2.00863        2.18881
H          1.88062        0.15335       -2.06644
H          3.48780       -0.19600       -1.40334
H          3.24221       -3.47526        0.00386
H          4.77862       -3.89656       -0.82748
H          4.46175       -2.19912       -0.39043
H          1.00767       -0.19328       -4.14480
H          1.25806       -3.29732       -7.20193
H          2.62263       -4.72708       -5.69453
H          4.98533       -5.00261       -2.98612
H          3.56001       -5.64489       -2.11137
H          3.61857       -5.70649       -3.88385
