 xtb: 6.7.1 (edcfbbe)
          12202406443D

 47 49  0     0  0            999 V2000
    0.9088   -0.9684   -0.6370 C   0  0  0  0  0  0  0  0  0  0  0  0
    0.3441   -0.2594   -1.7516 N   0  0  0  0  0  0  0  0  0  0  0  0
    0.6159   -0.4994   -3.0616 C   0  0  0  0  0  0  0  0  0  0  0  0
   -0.0377    0.4477   -3.7881 C   0  0  0  0  0  0  0  0  0  0  0  0
   -0.6973    1.2534   -2.9111 N   0  0  0  0  0  0  0  0  0  0  0  0
   -0.4463    0.8066   -1.6837 C   0  0  0  0  0  0  0  0  0  0  0  0
   -1.4878    2.4033   -3.2982 C   0  0  0  0  0  0  0  0  0  0  0  0
   -1.5620    3.4987   -2.2365 C   0  0  0  0  0  0  0  0  0  0  0  0
   -0.2069    4.0519   -1.8102 C   0  0  0  0  0  0  0  0  0  0  0  0
    0.7734    4.6958   -3.2073 S   0  0  0  0  0  0  0  0  0  0  0  0
    2.2078    3.6368   -3.1867 C   0  0  0  0  0  0  0  0  0  0  0  0
    2.3156    2.2852   -2.2454 S   0  0  0  0  0  0  0  0  0  0  0  0
    3.1667    4.0285   -4.0270 N   0  0  0  0  0  0  0  0  0  0  0  0
    3.2191    5.3493   -4.5593 C   0  0  0  0  0  0  0  0  0  0  0  0
    3.2874    5.5252   -5.9348 C   0  0  0  0  0  0  0  0  0  0  0  0
    3.3833    6.8036   -6.4542 C   0  0  0  0  0  0  0  0  0  0  0  0
    3.4170    7.8994   -5.6076 C   0  0  0  0  0  0  0  0  0  0  0  0
    3.3615    7.7183   -4.2354 C   0  0  0  0  0  0  0  0  0  0  0  0
    3.2673    6.4451   -3.7054 C   0  0  0  0  0  0  0  0  0  0  0  0
    4.2266    3.1652   -4.4189 C   0  0  0  0  0  0  0  0  0  0  0  0
    5.5349    3.6269   -4.3537 C   0  0  0  0  0  0  0  0  0  0  0  0
    6.5696    2.8081   -4.7675 C   0  0  0  0  0  0  0  0  0  0  0  0
    6.3038    1.5368   -5.2485 C   0  0  0  0  0  0  0  0  0  0  0  0
    4.9970    1.0838   -5.3201 C   0  0  0  0  0  0  0  0  0  0  0  0
    3.9552    1.8947   -4.9099 C   0  0  0  0  0  0  0  0  0  0  0  0
    0.9608   -2.0326   -0.8604 H   0  0  0  0  0  0  0  0  0  0  0  0
    0.3006   -0.8140    0.2516 H   0  0  0  0  0  0  0  0  0  0  0  0
    1.9180   -0.5990   -0.4433 H   0  0  0  0  0  0  0  0  0  0  0  0
    1.2512   -1.2996   -3.3812 H   0  0  0  0  0  0  0  0  0  0  0  0
   -0.0756    0.5994   -4.8474 H   0  0  0  0  0  0  0  0  0  0  0  0
   -0.8214    1.2281   -0.7727 H   0  0  0  0  0  0  0  0  0  0  0  0
   -1.0373    2.8155   -4.2052 H   0  0  0  0  0  0  0  0  0  0  0  0
   -2.5015    2.0683   -3.5416 H   0  0  0  0  0  0  0  0  0  0  0  0
   -2.1582    4.3077   -2.6618 H   0  0  0  0  0  0  0  0  0  0  0  0
   -2.0874    3.1411   -1.3490 H   0  0  0  0  0  0  0  0  0  0  0  0
   -0.3515    4.8875   -1.1271 H   0  0  0  0  0  0  0  0  0  0  0  0
    0.4259    3.2961   -1.3366 H   0  0  0  0  0  0  0  0  0  0  0  0
    3.2679    4.6641   -6.5863 H   0  0  0  0  0  0  0  0  0  0  0  0
    3.4344    6.9422   -7.5228 H   0  0  0  0  0  0  0  0  0  0  0  0
    3.4941    8.8946   -6.0164 H   0  0  0  0  0  0  0  0  0  0  0  0
    3.4022    8.5688   -3.5727 H   0  0  0  0  0  0  0  0  0  0  0  0
    3.2418    6.2957   -2.6359 H   0  0  0  0  0  0  0  0  0  0  0  0
    5.7345    4.6188   -3.9773 H   0  0  0  0  0  0  0  0  0  0  0  0
    7.5858    3.1659   -4.7121 H   0  0  0  0  0  0  0  0  0  0  0  0
    7.1134    0.9009   -5.5709 H   0  0  0  0  0  0  0  0  0  0  0  0
    4.7851    0.0981   -5.7056 H   0  0  0  0  0  0  0  0  0  0  0  0
    2.9333    1.5491   -4.9741 H   0  0  0  0  0  0  0  0  0  0  0  0
  1  2  1  0  0  0  0
  2  3  4  0  0  0  0
  3  4  2  0  0  0  0
  4  5  4  0  0  0  0
  2  6  4  0  0  0  0
  5  6  4  0  0  0  0
  5  7  1  0  0  0  0
  7  8  1  0  0  0  0
  8  9  1  0  0  0  0
  9 10  1  0  0  0  0
 10 11  1  0  0  0  0
 11 12  2  0  0  0  0
 11 13  4  0  0  0  0
 13 14  1  0  0  0  0
 14 15  4  0  0  0  0
 15 16  4  0  0  0  0
 16 17  4  0  0  0  0
 17 18  4  0  0  0  0
 14 19  4  0  0  0  0
 18 19  4  0  0  0  0
 13 20  1  0  0  0  0
 20 21  4  0  0  0  0
 21 22  4  0  0  0  0
 22 23  4  0  0  0  0
 23 24  4  0  0  0  0
 20 25  4  0  0  0  0
 24 25  4  0  0  0  0
  1 26  1  0  0  0  0
  1 27  1  0  0  0  0
  1 28  1  0  0  0  0
  3 29  1  0  0  0  0
  4 30  1  0  0  0  0
  6 31  1  0  0  0  0
  7 32  1  0  0  0  0
  7 33  1  0  0  0  0
  8 34  1  0  0  0  0
  8 35  1  0  0  0  0
  9 36  1  0  0  0  0
  9 37  1  0  0  0  0
 15 38  1  0  0  0  0
 16 39  1  0  0  0  0
 17 40  1  0  0  0  0
 18 41  1  0  0  0  0
 19 42  1  0  0  0  0
 21 43  1  0  0  0  0
 22 44  1  0  0  0  0
 23 45  1  0  0  0  0
 24 46  1  0  0  0  0
 25 47  1  0  0  0  0
M  CHG  1   1   1
M  END
