25

C          1.23833        0.01758       -0.23392
C          0.36366       -1.11251       -0.74370
C          0.56366       -2.47910       -0.08409
N          0.26423       -2.56857        1.41849
C          1.43909       -2.14249        2.26875
C         -0.10092       -4.00834        1.73491
O         -1.48781       -4.22036        1.51123
C         -2.10011       -2.92488        1.42761
C         -1.04259       -1.91774        1.85007
H          0.89417        0.38280        0.73693
H          1.19260        0.86504       -0.92626
H          2.28435       -0.29282       -0.15268
H         -0.68872       -0.81134       -0.70439
H          0.58597       -1.24107       -1.81135
H         -0.09806       -3.19234       -0.59173
H          1.59164       -2.83291       -0.22790
H          2.32126       -2.70628        1.95223
H          1.59972       -1.07189        2.15165
H          1.21731       -2.35570        3.31937
H          0.10338       -4.20169        2.79493
H          0.50454       -4.68962        1.12666
H         -2.41283       -2.76498        0.39062
H         -2.98598       -2.89194        2.06789
H         -1.15640       -0.92072        1.42178
H         -1.01778       -1.83482        2.94368
