 xtb: 6.7.1 (edcfbbe)
          12202406443D

 35 35  0     0  0            999 V2000
    1.6683    0.4602   -0.1401 O   0  0  0  0  0  0  0  0  0  0  0  0
    0.9263   -0.2907   -1.0748 C   0  0  0  0  0  0  0  0  0  0  0  0
    1.1533    0.3491   -2.4547 C   0  0  0  0  0  0  0  0  0  0  0  0
    2.5917    0.4104   -2.6685 N   0  0  0  0  0  0  0  0  0  0  0  0
    3.3843   -0.5220   -3.2655 C   0  0  0  0  0  0  0  0  0  0  0  0
    4.6733   -0.1047   -3.1272 C   0  0  0  0  0  0  0  0  0  0  0  0
    4.6486    1.0671   -2.4348 N   0  0  0  0  0  0  0  0  0  0  0  0
    3.3795    1.3588   -2.1717 C   0  0  0  0  0  0  0  0  0  0  0  0
    5.7999    1.8824   -2.1142 C   0  0  0  0  0  0  0  0  0  0  0  0
    6.1765    2.7749   -3.2929 C   0  0  0  0  0  0  0  0  0  0  0  0
    0.4493   -0.3938   -3.5888 C   0  0  0  0  0  0  0  0  0  0  0  0
   -1.0753   -0.1936   -3.6253 C   0  0  0  0  0  0  0  0  0  0  0  0
   -1.4581    1.2648   -3.8649 C   0  0  0  0  0  0  0  0  0  0  0  0
   -1.6557   -1.0720   -4.7325 C   0  0  0  0  0  0  0  0  0  0  0  0
    1.4324    0.1864    0.7525 H   0  0  0  0  0  0  0  0  0  0  0  0
    1.2627   -1.3370   -1.0888 H   0  0  0  0  0  0  0  0  0  0  0  0
   -0.1439   -0.2658   -0.8474 H   0  0  0  0  0  0  0  0  0  0  0  0
    0.8063    1.3850   -2.4052 H   0  0  0  0  0  0  0  0  0  0  0  0
    3.0001   -1.3988   -3.7429 H   0  0  0  0  0  0  0  0  0  0  0  0
    5.5832   -0.5586   -3.4628 H   0  0  0  0  0  0  0  0  0  0  0  0
    3.0364    2.2107   -1.6185 H   0  0  0  0  0  0  0  0  0  0  0  0
    5.5586    2.4896   -1.2399 H   0  0  0  0  0  0  0  0  0  0  0  0
    6.6303    1.2186   -1.8648 H   0  0  0  0  0  0  0  0  0  0  0  0
    5.3596    3.4462   -3.5469 H   0  0  0  0  0  0  0  0  0  0  0  0
    7.0427    3.3738   -3.0289 H   0  0  0  0  0  0  0  0  0  0  0  0
    6.4256    2.1790   -4.1675 H   0  0  0  0  0  0  0  0  0  0  0  0
    0.8586   -0.0446   -4.5399 H   0  0  0  0  0  0  0  0  0  0  0  0
    0.6502   -1.4633   -3.5010 H   0  0  0  0  0  0  0  0  0  0  0  0
   -1.5008   -0.5195   -2.6714 H   0  0  0  0  0  0  0  0  0  0  0  0
   -0.9692    1.6476   -4.7580 H   0  0  0  0  0  0  0  0  0  0  0  0
   -2.5318    1.3416   -4.0106 H   0  0  0  0  0  0  0  0  0  0  0  0
   -1.1973    1.8993   -3.0215 H   0  0  0  0  0  0  0  0  0  0  0  0
   -1.4083   -2.1183   -4.5707 H   0  0  0  0  0  0  0  0  0  0  0  0
   -2.7375   -0.9807   -4.7569 H   0  0  0  0  0  0  0  0  0  0  0  0
   -1.2670   -0.7702   -5.7023 H   0  0  0  0  0  0  0  0  0  0  0  0
  1  2  1  0  0  0  0
  2  3  1  0  0  0  0
  3  4  1  0  0  0  0
  4  5  4  0  0  0  0
  5  6  2  0  0  0  0
  6  7  4  0  0  0  0
  4  8  4  0  0  0  0
  7  8  4  0  0  0  0
  7  9  1  0  0  0  0
  9 10  1  0  0  0  0
  3 11  1  0  0  0  0
 11 12  1  0  0  0  0
 12 13  1  0  0  0  0
 12 14  1  0  0  0  0
  1 15  1  0  0  0  0
  2 16  1  0  0  0  0
  2 17  1  0  0  0  0
  3 18  1  0  0  0  0
  5 19  1  0  0  0  0
  6 20  1  0  0  0  0
  8 21  1  0  0  0  0
  9 22  1  0  0  0  0
  9 23  1  0  0  0  0
 10 24  1  0  0  0  0
 10 25  1  0  0  0  0
 10 26  1  0  0  0  0
 11 27  1  0  0  0  0
 11 28  1  0  0  0  0
 12 29  1  0  0  0  0
 13 30  1  0  0  0  0
 13 31  1  0  0  0  0
 13 32  1  0  0  0  0
 14 33  1  0  0  0  0
 14 34  1  0  0  0  0
 14 35  1  0  0  0  0
M  CHG  1   1   1
M  END
