 xtb: 6.7.1 (edcfbbe)
          12202406443D

 28 29  0     0  0            999 V2000
    2.7230   -0.9740    0.5718 C   0  0  0  0  0  0  0  0  0  0  0  0
    1.5821   -0.4924    1.3021 N   0  0  0  0  0  0  0  0  0  0  0  0
    1.1487    0.7996    1.3262 C   0  0  0  0  0  0  0  0  0  0  0  0
    0.0502    0.8436    2.1276 C   0  0  0  0  0  0  0  0  0  0  0  0
   -0.1622   -0.4198    2.5922 N   0  0  0  0  0  0  0  0  0  0  0  0
    0.7713   -1.2138    2.0691 C   0  0  0  0  0  0  0  0  0  0  0  0
   -1.2953   -0.8801    3.3422 C   0  0  0  0  0  0  0  0  0  0  0  0
   -2.0616   -1.9244    2.4940 C   0  0  0  0  0  0  0  0  0  0  0  0
   -1.5585   -2.3167    1.4666 O   0  0  0  0  0  0  0  0  0  0  0  0
   -3.3549   -2.3957    2.9933 C   0  0  0  0  0  0  0  0  0  0  0  0
   -4.0886   -3.2562    2.1618 C   0  0  0  0  0  0  0  0  0  0  0  0
   -5.3109   -3.7598    2.5519 C   0  0  0  0  0  0  0  0  0  0  0  0
   -5.8369   -3.4219    3.7913 C   0  0  0  0  0  0  0  0  0  0  0  0
   -5.1355   -2.5793    4.6386 C   0  0  0  0  0  0  0  0  0  0  0  0
   -3.9142   -2.0773    4.2363 C   0  0  0  0  0  0  0  0  0  0  0  0
   -3.2534   -1.2690    5.0893 F   0  0  0  0  0  0  0  0  0  0  0  0
    2.6491   -0.6749   -0.4736 H   0  0  0  0  0  0  0  0  0  0  0  0
    2.7665   -2.0591    0.6285 H   0  0  0  0  0  0  0  0  0  0  0  0
    3.6410   -0.5567    0.9884 H   0  0  0  0  0  0  0  0  0  0  0  0
    1.6376    1.5815    0.7818 H   0  0  0  0  0  0  0  0  0  0  0  0
   -0.5751    1.6706    2.3960 H   0  0  0  0  0  0  0  0  0  0  0  0
    0.8595   -2.2680    2.2451 H   0  0  0  0  0  0  0  0  0  0  0  0
   -0.9753   -1.3566    4.2740 H   0  0  0  0  0  0  0  0  0  0  0  0
   -1.9356   -0.0321    3.5885 H   0  0  0  0  0  0  0  0  0  0  0  0
   -3.6637   -3.5095    1.2026 H   0  0  0  0  0  0  0  0  0  0  0  0
   -5.8560   -4.4180    1.8944 H   0  0  0  0  0  0  0  0  0  0  0  0
   -6.7918   -3.8155    4.1025 H   0  0  0  0  0  0  0  0  0  0  0  0
   -5.5199   -2.3062    5.6085 H   0  0  0  0  0  0  0  0  0  0  0  0
  1  2  1  0  0  0  0
  2  3  4  0  0  0  0
  3  4  2  0  0  0  0
  4  5  4  0  0  0  0
  2  6  4  0  0  0  0
  5  6  4  0  0  0  0
  5  7  1  0  0  0  0
  7  8  1  0  0  0  0
  8  9  2  0  0  0  0
  8 10  1  0  0  0  0
 10 11  4  0  0  0  0
 11 12  4  0  0  0  0
 12 13  4  0  0  0  0
 13 14  4  0  0  0  0
 10 15  4  0  0  0  0
 14 15  4  0  0  0  0
 15 16  1  0  0  0  0
  1 17  1  0  0  0  0
  1 18  1  0  0  0  0
  1 19  1  0  0  0  0
  3 20  1  0  0  0  0
  4 21  1  0  0  0  0
  6 22  1  0  0  0  0
  7 23  1  0  0  0  0
  7 24  1  0  0  0  0
 11 25  1  0  0  0  0
 12 26  1  0  0  0  0
 13 27  1  0  0  0  0
 14 28  1  0  0  0  0
M  CHG  1   1   1
M  END
