28

C          2.27691       -0.39708        0.13625
N          1.31654       -0.29749        1.22728
C          0.78300        0.87153        1.74256
C         -0.07513        0.50685        2.74142
N         -0.03409       -0.87460        2.81651
C          0.81176       -1.35153        1.88734
C         -0.81379       -1.72534        3.72901
C         -1.67801       -2.69650        2.93748
O         -1.16710       -3.50206        2.15637
C         -3.14781       -2.68019        3.10738
C         -3.85511       -3.88216        2.98333
C         -5.24411       -3.89098        3.13089
C         -5.92951       -2.70262        3.38875
C         -5.22918       -1.50090        3.49067
C         -3.84491       -1.49554        3.34395
F         -3.19997       -0.32147        3.40475
H          2.14007        0.43844       -0.55550
H          2.12261       -1.33650       -0.40143
H          3.28673       -0.37188        0.55375
H          1.08150        1.81700        1.32321
H         -0.71604        1.05591        3.41010
H          1.04787       -2.39447        1.70145
H         -0.10703       -2.31359        4.32588
H         -1.38167       -1.11127        4.42992
H         -3.33538       -4.81537        2.77097
H         -5.79557       -4.82553        3.03829
H         -7.01274       -2.71376        3.49810
H         -5.76035       -0.57056        3.67262
