16

Br         0.92039        0.10544       -0.05495
C          2.79172        0.08180       -0.05984
N          3.58038        1.16550       -0.06128
C          3.15491        2.56245       -0.05573
C          4.90673        0.74318       -0.06917
C          4.88933       -0.63285       -0.06959
N          3.55273       -1.02153       -0.06254
C          3.09208       -2.40726       -0.05887
Br         6.36055       -1.77244       -0.07765
Br         6.40627        1.84522       -0.07706
H          3.55294        3.05285        0.83731
H          3.53866        3.05578       -0.95335
H          2.06902        2.65813       -0.04652
H          3.46561       -2.90975       -0.95573
H          3.47523       -2.90796        0.83496
H          2.00410       -2.47548       -0.05278
