16

N          1.02000       -0.09186       -0.03407
C          2.28097       -0.09186       -0.03407
C          3.80097       -0.09186       -0.03407
N          4.34978        1.02877        0.77556
C          4.11382        2.30878        0.39141
C          4.60980        3.37341        1.13421
C          5.35991        3.11859        2.27369
C          5.59861        1.80424        2.65248
C          5.07852        0.76682        1.88637
H          4.17541       -1.03907        0.36602
H          4.18654        0.03560       -1.05140
H          3.52225        2.47436       -0.50612
H          4.40987        4.39894        0.82812
H          5.75561        3.94269        2.86700
H          6.18554        1.59083        3.54388
H          5.24534       -0.27200        2.15993
