 xtb: 6.7.1 (edcfbbe)
          12202406443D

 53 52  0     0  0            999 V2000
    1.4038    0.4808   -0.4945 C   0  0  0  0  0  0  0  0  0  0  0  0
    1.4012   -0.5700   -1.5983 C   0  0  0  0  0  0  0  0  0  0  0  0
    1.5185   -2.0005   -1.0697 C   0  0  0  0  0  0  0  0  0  0  0  0
    0.3717   -2.4496   -0.1619 C   0  0  0  0  0  0  0  0  0  0  0  0
   -1.0169   -2.4051   -0.8030 C   0  0  0  0  0  0  0  0  0  0  0  0
   -1.1671   -3.2415   -2.0754 C   0  0  0  0  0  0  0  0  0  0  0  0
   -0.8602   -4.7310   -1.9072 C   0  0  0  0  0  0  0  0  0  0  0  0
   -1.7248   -5.4554   -0.8734 C   0  0  0  0  0  0  0  0  0  0  0  0
   -3.2311   -5.4095   -1.1434 C   0  0  0  0  0  0  0  0  0  0  0  0
   -3.6534   -5.9988   -2.4913 C   0  0  0  0  0  0  0  0  0  0  0  0
   -3.2649   -7.4644   -2.7098 C   0  0  0  0  0  0  0  0  0  0  0  0
   -3.6982   -8.4993   -1.6692 C   0  0  0  0  0  0  0  0  0  0  0  0
   -5.1557   -8.8686   -1.5891 N   0  0  0  0  0  0  0  0  0  0  0  0
   -5.7136   -9.0820   -2.9389 C   0  0  0  0  0  0  0  0  0  0  0  0
   -5.2622  -10.1429   -0.8422 C   0  0  0  0  0  0  0  0  0  0  0  0
   -5.9664   -7.8285   -0.9075 C   0  0  0  0  0  0  0  0  0  0  0  0
   -5.5647   -7.5292    0.5580 C   0  0  0  0  0  0  0  0  0  0  0  0
   -6.2903   -6.5907    1.1336 O   0  0  0  0  0  0  0  0  0  0  0  0
   -4.6799   -8.0960    1.1238 O   0  0  0  0  0  0  0  0  0  0  0  0
    0.5110    0.4084    0.1212 H   0  0  0  0  0  0  0  0  0  0  0  0
    1.4354    1.4785   -0.9255 H   0  0  0  0  0  0  0  0  0  0  0  0
    2.2748    0.3576    0.1451 H   0  0  0  0  0  0  0  0  0  0  0  0
    0.4949   -0.4663   -2.1979 H   0  0  0  0  0  0  0  0  0  0  0  0
    2.2500   -0.3857   -2.2609 H   0  0  0  0  0  0  0  0  0  0  0  0
    1.5989   -2.6821   -1.9195 H   0  0  0  0  0  0  0  0  0  0  0  0
    2.4481   -2.0841   -0.5014 H   0  0  0  0  0  0  0  0  0  0  0  0
    0.5825   -3.4661    0.1783 H   0  0  0  0  0  0  0  0  0  0  0  0
    0.3535   -1.8167    0.7268 H   0  0  0  0  0  0  0  0  0  0  0  0
   -1.7474   -2.7350   -0.0601 H   0  0  0  0  0  0  0  0  0  0  0  0
   -1.2626   -1.3709   -1.0496 H   0  0  0  0  0  0  0  0  0  0  0  0
   -2.1856   -3.1160   -2.4522 H   0  0  0  0  0  0  0  0  0  0  0  0
   -0.4977   -2.8458   -2.8406 H   0  0  0  0  0  0  0  0  0  0  0  0
   -0.9622   -5.2165   -2.8812 H   0  0  0  0  0  0  0  0  0  0  0  0
    0.1820   -4.8453   -1.6073 H   0  0  0  0  0  0  0  0  0  0  0  0
   -1.3925   -6.4944   -0.8089 H   0  0  0  0  0  0  0  0  0  0  0  0
   -1.5518   -5.0099    0.1065 H   0  0  0  0  0  0  0  0  0  0  0  0
   -3.7373   -5.9230   -0.3216 H   0  0  0  0  0  0  0  0  0  0  0  0
   -3.5601   -4.3700   -1.1161 H   0  0  0  0  0  0  0  0  0  0  0  0
   -4.7276   -5.8475   -2.6375 H   0  0  0  0  0  0  0  0  0  0  0  0
   -3.1670   -5.4248   -3.2807 H   0  0  0  0  0  0  0  0  0  0  0  0
   -3.5750   -7.7694   -3.7100 H   0  0  0  0  0  0  0  0  0  0  0  0
   -2.1744   -7.5117   -2.7025 H   0  0  0  0  0  0  0  0  0  0  0  0
   -3.1685   -9.4253   -1.9008 H   0  0  0  0  0  0  0  0  0  0  0  0
   -3.3877   -8.1802   -0.6745 H   0  0  0  0  0  0  0  0  0  0  0  0
   -5.0850   -9.7783   -3.4907 H   0  0  0  0  0  0  0  0  0  0  0  0
   -6.7152   -9.5034   -2.8677 H   0  0  0  0  0  0  0  0  0  0  0  0
   -5.7687   -8.1452   -3.4886 H   0  0  0  0  0  0  0  0  0  0  0  0
   -4.7816  -10.0482    0.1299 H   0  0  0  0  0  0  0  0  0  0  0  0
   -6.3084  -10.4064   -0.6959 H   0  0  0  0  0  0  0  0  0  0  0  0
   -4.7786  -10.9418   -1.4003 H   0  0  0  0  0  0  0  0  0  0  0  0
   -5.8883   -6.8977   -1.4754 H   0  0  0  0  0  0  0  0  0  0  0  0
   -7.0128   -8.1521   -0.9077 H   0  0  0  0  0  0  0  0  0  0  0  0
   -6.9908   -6.1822    0.6064 H   0  0  0  0  0  0  0  0  0  0  0  0
  1  2  1  0  0  0  0
  2  3  1  0  0  0  0
  3  4  1  0  0  0  0
  4  5  1  0  0  0  0
  5  6  1  0  0  0  0
  6  7  1  0  0  0  0
  7  8  1  0  0  0  0
  8  9  1  0  0  0  0
  9 10  1  0  0  0  0
 10 11  1  0  0  0  0
 11 12  1  0  0  0  0
 12 13  1  0  0  0  0
 13 14  1  0  0  0  0
 13 15  1  0  0  0  0
 13 16  1  0  0  0  0
 16 17  1  0  0  0  0
 17 18  1  0  0  0  0
 17 19  2  0  0  0  0
  1 20  1  0  0  0  0
  1 21  1  0  0  0  0
  1 22  1  0  0  0  0
  2 23  1  0  0  0  0
  2 24  1  0  0  0  0
  3 25  1  0  0  0  0
  3 26  1  0  0  0  0
  4 27  1  0  0  0  0
  4 28  1  0  0  0  0
  5 29  1  0  0  0  0
  5 30  1  0  0  0  0
  6 31  1  0  0  0  0
  6 32  1  0  0  0  0
  7 33  1  0  0  0  0
  7 34  1  0  0  0  0
  8 35  1  0  0  0  0
  8 36  1  0  0  0  0
  9 37  1  0  0  0  0
  9 38  1  0  0  0  0
 10 39  1  0  0  0  0
 10 40  1  0  0  0  0
 11 41  1  0  0  0  0
 11 42  1  0  0  0  0
 12 43  1  0  0  0  0
 12 44  1  0  0  0  0
 14 45  1  0  0  0  0
 14 46  1  0  0  0  0
 14 47  1  0  0  0  0
 15 48  1  0  0  0  0
 15 49  1  0  0  0  0
 15 50  1  0  0  0  0
 16 51  1  0  0  0  0
 16 52  1  0  0  0  0
 18 53  1  0  0  0  0
M  CHG  1   1   1
M  END
