 xtb: 6.7.1 (edcfbbe)
          12202406443D

 16 16  0     0  0            999 V2000
    0.9405    0.1052   -0.0483 Br  0  0  0  0  0  0  0  0  0  0  0  0
    2.7946    0.0817   -0.0575 C   0  0  0  0  0  0  0  0  0  0  0  0
    3.5796    1.1702   -0.0607 N   0  0  0  0  0  0  0  0  0  0  0  0
    3.1733    2.5506   -0.0574 C   0  0  0  0  0  0  0  0  0  0  0  0
    4.8867    0.7437   -0.0677 C   0  0  0  0  0  0  0  0  0  0  0  0
    4.8693   -0.6328   -0.0685 C   0  0  0  0  0  0  0  0  0  0  0  0
    3.5518   -1.0262   -0.0621 N   0  0  0  0  0  0  0  0  0  0  0  0
    3.1108   -2.3959   -0.0603 C   0  0  0  0  0  0  0  0  0  0  0  0
    6.2863   -1.8362   -0.0765 Br  0  0  0  0  0  0  0  0  0  0  0  0
    6.3337    1.9108   -0.0744 Br  0  0  0  0  0  0  0  0  0  0  0  0
    3.5750    3.0516    0.8250 H   0  0  0  0  0  0  0  0  0  0  0  0
    3.5613    3.0520   -0.9457 H   0  0  0  0  0  0  0  0  0  0  0  0
    2.0880    2.6206   -0.0490 H   0  0  0  0  0  0  0  0  0  0  0  0
    3.4882   -2.9065   -0.9479 H   0  0  0  0  0  0  0  0  0  0  0  0
    3.4975   -2.9072    0.8228 H   0  0  0  0  0  0  0  0  0  0  0  0
    2.0240   -2.4384   -0.0546 H   0  0  0  0  0  0  0  0  0  0  0  0
  1  2  1  0  0  0  0
  2  3  4  0  0  0  0
  3  4  1  0  0  0  0
  3  5  1  0  0  0  0
  5  6  4  0  0  0  0
  2  7  4  0  0  0  0
  6  7  1  0  0  0  0
  7  8  1  0  0  0  0
  6  9  1  0  0  0  0
  5 10  1  0  0  0  0
  4 11  1  0  0  0  0
  4 12  1  0  0  0  0
  4 13  1  0  0  0  0
  8 14  1  0  0  0  0
  8 15  1  0  0  0  0
  8 16  1  0  0  0  0
M  CHG  1   1   1
M  END
