 xtb: 6.7.1 (edcfbbe)
          12202406443D

 36 39  0     0  0            999 V2000
    0.3488    2.3604   -0.8128 O   0  0  0  0  0  0  0  0  0  0  0  0
    1.3941    1.7929   -0.6463 C   0  0  0  0  0  0  0  0  0  0  0  0
    2.4062    1.5952   -1.6910 C   0  0  0  0  0  0  0  0  0  0  0  0
    3.3768    0.5912   -1.6450 C   0  0  0  0  0  0  0  0  0  0  0  0
    4.2860    0.4621   -2.6772 C   0  0  0  0  0  0  0  0  0  0  0  0
    4.2468    1.3308   -3.7584 C   0  0  0  0  0  0  0  0  0  0  0  0
    3.2821    2.3251   -3.8168 C   0  0  0  0  0  0  0  0  0  0  0  0
    2.3624    2.4534   -2.7950 C   0  0  0  0  0  0  0  0  0  0  0  0
    1.7463    1.2685    0.7793 C   0  0  0  0  0  0  0  0  0  0  0  0
    3.0211    1.7667    1.2174 N   0  0  0  0  0  0  0  0  0  0  0  0
    4.0729    1.0677    1.6300 C   0  0  0  0  0  0  0  0  0  0  0  0
    5.1000    1.8595    1.9260 N   0  0  0  0  0  0  0  0  0  0  0  0
    4.7074    3.1589    1.6957 C   0  0  0  0  0  0  0  0  0  0  0  0
    3.3733    3.1009    1.2398 C   0  0  0  0  0  0  0  0  0  0  0  0
    2.6683    4.2522    0.9167 C   0  0  0  0  0  0  0  0  0  0  0  0
    3.3568    5.4414    1.0672 C   0  0  0  0  0  0  0  0  0  0  0  0
    4.6794    5.5122    1.5200 C   0  0  0  0  0  0  0  0  0  0  0  0
    5.3784    4.3699    1.8425 C   0  0  0  0  0  0  0  0  0  0  0  0
    2.6650    6.6917    0.7332 N   0  0  0  0  0  0  0  0  0  0  0  0
    1.5537    6.5865    0.2831 O   0  0  0  0  0  0  0  0  0  0  0  0
    3.2675    7.7136    0.9330 O   0  0  0  0  0  0  0  0  0  0  0  0
    6.3932    1.4534    2.4068 C   0  0  0  0  0  0  0  0  0  0  0  0
    3.3940   -0.1259   -0.8378 H   0  0  0  0  0  0  0  0  0  0  0  0
    5.0215   -0.3274   -2.6478 H   0  0  0  0  0  0  0  0  0  0  0  0
    4.9597    1.2211   -4.5607 H   0  0  0  0  0  0  0  0  0  0  0  0
    3.2410    2.9911   -4.6642 H   0  0  0  0  0  0  0  0  0  0  0  0
    1.5976    3.2145   -2.8270 H   0  0  0  0  0  0  0  0  0  0  0  0
    0.9578    1.6242    1.4502 H   0  0  0  0  0  0  0  0  0  0  0  0
    1.7481    0.1773    0.7849 H   0  0  0  0  0  0  0  0  0  0  0  0
    4.0912   -0.0026    1.7277 H   0  0  0  0  0  0  0  0  0  0  0  0
    1.6463    4.2535    0.5684 H   0  0  0  0  0  0  0  0  0  0  0  0
    5.1342    6.4878    1.6110 H   0  0  0  0  0  0  0  0  0  0  0  0
    6.3957    4.4171    2.1935 H   0  0  0  0  0  0  0  0  0  0  0  0
    6.4339    0.3700    2.4904 H   0  0  0  0  0  0  0  0  0  0  0  0
    7.1691    1.7888    1.7176 H   0  0  0  0  0  0  0  0  0  0  0  0
    6.5826    1.8940    3.3866 H   0  0  0  0  0  0  0  0  0  0  0  0
  1  2  2  0  0  0  0
  2  3  1  0  0  0  0
  3  4  4  0  0  0  0
  4  5  4  0  0  0  0
  5  6  4  0  0  0  0
  6  7  4  0  0  0  0
  3  8  4  0  0  0  0
  7  8  4  0  0  0  0
  2  9  1  0  0  0  0
  9 10  1  0  0  0  0
 10 11  4  0  0  0  0
 11 12  4  0  0  0  0
 12 13  1  0  0  0  0
 10 14  1  0  0  0  0
 13 14  4  0  0  0  0
 14 15  4  0  0  0  0
 15 16  4  0  0  0  0
 16 17  4  0  0  0  0
 13 18  4  0  0  0  0
 17 18  4  0  0  0  0
 16 19  1  0  0  0  0
 19 20  4  0  0  0  0
 19 21  4  0  0  0  0
 20 21  1  0  0  0  0
 12 22  1  0  0  0  0
  4 23  1  0  0  0  0
  5 24  1  0  0  0  0
  6 25  1  0  0  0  0
  7 26  1  0  0  0  0
  8 27  1  0  0  0  0
  9 28  1  0  0  0  0
  9 29  1  0  0  0  0
 11 30  1  0  0  0  0
 15 31  1  0  0  0  0
 17 32  1  0  0  0  0
 18 33  1  0  0  0  0
 22 34  1  0  0  0  0
 22 35  1  0  0  0  0
 22 36  1  0  0  0  0
M  CHG  1   1   1
M  END
