13

N          1.18935        0.02947       -0.03000
N          0.96761        1.30606       -0.73212
N         -0.37557        1.37983       -0.92494
C         -0.72586        2.61722       -0.50147
N          0.32522        3.21567        0.07750
C          1.34372        2.39136       -0.07298
N          2.55839        2.49706        0.48959
H          0.69826        0.09374        0.86925
H          0.62871       -0.67483       -0.52059
H          1.46150        1.34151       -1.61743
H         -1.71957        3.03026       -0.57584
H          2.94046        1.57220        0.60943
H          2.54561        3.04429        1.33198
