39

C          1.88783       -0.40538       -0.52052
C          1.09824       -1.70621       -0.56097
C          1.14612       -2.47941        0.75928
C          0.36399       -1.83508        1.90479
N         -1.07808       -2.07124        1.79581
C         -1.71241       -3.17749        2.17188
N         -1.11035       -4.24862        2.68406
N         -3.01836       -3.04366        1.95652
C         -3.25505       -1.79886        1.37691
C         -2.01002       -1.16675        1.28927
C         -1.86835        0.11867        0.77112
C         -3.04157        0.74277        0.32934
C         -4.29273        0.10605        0.41322
C         -4.42855       -1.18336        0.94447
C         -4.06434       -4.01691        2.32329
C         -3.77845       -5.41492        1.79752
O         -2.84438       -6.09601        2.21389
O         -4.62808       -5.75537        0.79636
C         -4.38013       -7.03387        0.20229
H          1.47674        0.29966        0.20650
H          1.86630        0.07885       -1.50204
H          2.93477       -0.59239       -0.26050
H          0.06321       -1.50559       -0.85474
H          1.52735       -2.33877       -1.34758
H          0.76219       -3.49098        0.58094
H          2.19372       -2.59015        1.06421
H          0.69348       -2.26862        2.85655
H          0.55945       -0.76226        1.98512
H         -0.11326       -4.28462        2.82023
H         -1.61299       -5.12575        2.81766
H         -0.90679        0.60986        0.70683
H         -2.98508        1.74740       -0.09104
H         -5.17896        0.63188        0.05616
H         -5.39505       -1.66626        1.00828
H         -4.12242       -4.06295        3.41640
H         -5.04280       -3.68728        1.96354
H         -3.31260       -7.19073        0.01665
H         -4.77946       -7.82107        0.84782
H         -4.90170       -7.06626       -0.75814
