28

C          1.44173        0.58634       -0.19416
C          0.35657        1.12255        0.68910
O         -0.83243        1.09909        0.40891
N          0.64233        1.67688        1.91976
C          1.87406        1.84349        2.50484
C          1.63561        2.41341        3.72680
N          0.26113        2.56981        3.83956
C         -0.32995        2.13876        2.71036
C         -0.46445        3.11860        4.98757
C         -0.90637        4.51796        4.65775
C         -0.03814        5.60314        4.85378
C         -0.44569        6.90121        4.54219
C         -1.71846        7.12797        4.02369
C         -2.58727        6.05899        3.81736
C         -2.18570        4.75990        4.13250
H          1.00115        0.19919       -1.11727
H          1.96214       -0.22931        0.31390
H          2.14265        1.38461       -0.44910
H          2.77699        1.54232        2.00130
H          2.26910        2.72815        4.53884
H         -1.39579        2.15381        2.50184
H         -1.32083        2.46956        5.20274
H          0.18241        3.10967        5.87205
H          0.95844        5.45442        5.26397
H          0.22533        7.74121        4.71015
H         -2.03709        8.14126        3.78751
H         -3.58321        6.24341        3.41933
H         -2.89239        3.94749        3.97612
