 xtb: 6.7.1 (edcfbbe)
          12202406443D

 35 34  0     0  0            999 V2000
    2.1595   -0.2407   -0.2078 C   0  0  0  0  0  0  0  0  0  0  0  0
    1.0037   -1.0425   -0.7965 C   0  0  0  0  0  0  0  0  0  0  0  0
    0.8236   -2.4084   -0.1292 C   0  0  0  0  0  0  0  0  0  0  0  0
    0.3087   -2.3245    1.3151 C   0  0  0  0  0  0  0  0  0  0  0  0
   -1.5007   -2.4806    1.4688 P   0  0  0  0  0  0  0  0  0  0  0  0
   -2.0720   -4.0722    0.7739 C   0  0  0  0  0  0  0  0  0  0  0  0
   -1.2053   -5.2550    1.1941 C   0  0  0  0  0  0  0  0  0  0  0  0
   -1.9681   -2.4518    3.2394 C   0  0  0  0  0  0  0  0  0  0  0  0
   -1.0807   -1.5716    4.1157 C   0  0  0  0  0  0  0  0  0  0  0  0
   -2.4099   -1.1796    0.5639 C   0  0  0  0  0  0  0  0  0  0  0  0
   -2.2124    0.2201    1.1368 C   0  0  0  0  0  0  0  0  0  0  0  0
    1.9925    0.0134    0.8372 H   0  0  0  0  0  0  0  0  0  0  0  0
    2.2837    0.6878   -0.7583 H   0  0  0  0  0  0  0  0  0  0  0  0
    3.0879   -0.8023   -0.2780 H   0  0  0  0  0  0  0  0  0  0  0  0
    0.0827   -0.4607   -0.7257 H   0  0  0  0  0  0  0  0  0  0  0  0
    1.2040   -1.2105   -1.8561 H   0  0  0  0  0  0  0  0  0  0  0  0
    0.1474   -3.0182   -0.7340 H   0  0  0  0  0  0  0  0  0  0  0  0
    1.7923   -2.9109   -0.1236 H   0  0  0  0  0  0  0  0  0  0  0  0
    0.7233   -3.1328    1.9256 H   0  0  0  0  0  0  0  0  0  0  0  0
    0.6094   -1.3812    1.7754 H   0  0  0  0  0  0  0  0  0  0  0  0
   -3.1019   -4.2095    1.1188 H   0  0  0  0  0  0  0  0  0  0  0  0
   -2.0984   -3.9824   -0.3156 H   0  0  0  0  0  0  0  0  0  0  0  0
   -1.1137   -5.3196    2.2764 H   0  0  0  0  0  0  0  0  0  0  0  0
   -1.6576   -6.1793    0.8437 H   0  0  0  0  0  0  0  0  0  0  0  0
   -0.2095   -5.1871    0.7635 H   0  0  0  0  0  0  0  0  0  0  0  0
   -3.0085   -2.1154    3.2840 H   0  0  0  0  0  0  0  0  0  0  0  0
   -1.9393   -3.4835    3.6010 H   0  0  0  0  0  0  0  0  0  0  0  0
   -1.0412   -0.5480    3.7525 H   0  0  0  0  0  0  0  0  0  0  0  0
   -1.4826   -1.5521    5.1258 H   0  0  0  0  0  0  0  0  0  0  0  0
   -0.0681   -1.9630    4.1701 H   0  0  0  0  0  0  0  0  0  0  0  0
   -2.0855   -1.2220   -0.4798 H   0  0  0  0  0  0  0  0  0  0  0  0
   -3.4681   -1.4583    0.5945 H   0  0  0  0  0  0  0  0  0  0  0  0
   -1.1605    0.4960    1.1633 H   0  0  0  0  0  0  0  0  0  0  0  0
   -2.7313    0.9437    0.5131 H   0  0  0  0  0  0  0  0  0  0  0  0
   -2.6210    0.2952    2.1414 H   0  0  0  0  0  0  0  0  0  0  0  0
  1  2  1  0  0  0  0
  2  3  1  0  0  0  0
  3  4  1  0  0  0  0
  4  5  1  0  0  0  0
  5  6  1  0  0  0  0
  6  7  1  0  0  0  0
  5  8  1  0  0  0  0
  8  9  1  0  0  0  0
  5 10  1  0  0  0  0
 10 11  1  0  0  0  0
  1 12  1  0  0  0  0
  1 13  1  0  0  0  0
  1 14  1  0  0  0  0
  2 15  1  0  0  0  0
  2 16  1  0  0  0  0
  3 17  1  0  0  0  0
  3 18  1  0  0  0  0
  4 19  1  0  0  0  0
  4 20  1  0  0  0  0
  6 21  1  0  0  0  0
  6 22  1  0  0  0  0
  7 23  1  0  0  0  0
  7 24  1  0  0  0  0
  7 25  1  0  0  0  0
  8 26  1  0  0  0  0
  8 27  1  0  0  0  0
  9 28  1  0  0  0  0
  9 29  1  0  0  0  0
  9 30  1  0  0  0  0
 10 31  1  0  0  0  0
 10 32  1  0  0  0  0
 11 33  1  0  0  0  0
 11 34  1  0  0  0  0
 11 35  1  0  0  0  0
M  CHG  1   1   1
M  END
