65

C          1.83930       -0.19040       -0.35828
C          1.29836       -1.44524       -1.02510
C          1.94404       -2.73717       -0.51817
C          1.80943       -3.01157        0.98546
C          0.38718       -2.95439        1.55326
C         -0.56141       -4.01414        0.98007
C         -0.89883       -5.13494        1.96366
C         -1.79295       -4.73333        3.14008
P         -3.55301       -4.78472        2.93310
C         -4.01483       -6.36759        2.21889
C         -3.38001       -7.65502        2.74171
C         -3.84214       -8.15372        4.11002
C         -5.33811       -8.41559        4.19832
C         -4.42022       -4.63667        4.48466
C         -3.72101       -3.97985        5.67509
C         -3.99708       -2.49120        5.88435
C         -5.45518       -2.18026        6.19433
C         -4.19137       -3.59023        1.77157
C         -4.40914       -2.14795        2.21026
C         -3.14666       -1.29299        2.28615
C         -2.71951       -0.75342        0.92897
H          1.58720       -0.15969        0.70574
H          1.40634        0.69945       -0.82664
H          2.92744       -0.13032       -0.45799
H          0.21091       -1.48841       -0.90062
H          1.48057       -1.37096       -2.10436
H          1.52485       -3.57700       -1.08403
H          3.01311       -2.71783       -0.76575
H          2.24102       -3.99742        1.19982
H          2.42628       -2.28756        1.53178
H          0.45636       -3.04596        2.64295
H         -0.03314       -1.96086        1.36767
H         -1.48260       -3.53226        0.65230
H         -0.13101       -4.47280        0.08365
H         -1.37162       -5.94600        1.40223
H          0.04251       -5.53833        2.35776
H         -1.57315       -5.44407        3.94704
H         -1.49531       -3.75640        3.52859
H         -5.10670       -6.44995        2.23601
H         -3.74988       -6.29823        1.15596
H         -3.58403       -8.44840        2.01073
H         -2.29174       -7.54550        2.77280
H         -3.32006       -9.09573        4.32039
H         -3.52998       -7.45937        4.89553
H         -5.66333       -9.10368        3.41165
H         -5.58353       -8.86693        5.16506
H         -5.91927       -7.49373        4.10894
H         -5.40319       -4.19361        4.30294
H         -4.64904       -5.65266        4.80835
H         -4.03882       -4.50193        6.58739
H         -2.63971       -4.13001        5.60936
H         -3.39196       -2.14891        6.73307
H         -3.66245       -1.91237        5.02132
H         -5.81223       -2.77628        7.04051
H         -5.56770       -1.12316        6.45543
H         -6.10578       -2.37714        5.33801
H         -3.61375       -3.62369        0.84476
H         -5.18444       -3.96954        1.49578
H         -5.11499       -1.67226        1.51750
H         -4.90526       -2.14581        3.18263
H         -3.34673       -0.43357        2.93773
H         -2.32575       -1.84802        2.74518
H         -3.49535       -0.10695        0.50626
H         -1.80717       -0.15704        1.03092
H         -2.52301       -1.55625        0.21454
