35

C          1.83899       -0.10327       -0.39323
C          0.96928       -1.25195       -0.88205
C          1.00172       -2.47420        0.03565
C          0.33697       -2.29387        1.39855
P         -1.42477       -2.45932        1.50247
C         -1.95071       -3.96377        0.69973
C         -1.28774       -5.24016        1.17857
C         -1.92689       -2.56881        3.20586
C         -1.27986       -1.59174        4.16720
C         -2.30228       -1.14403        0.69969
C         -1.98377        0.26800        1.13986
H          1.47786        0.30622        0.55365
H          1.83520        0.70805       -1.12835
H          2.87535       -0.42755       -0.25517
H         -0.05412       -0.90072       -1.02849
H          1.33540       -1.55706       -1.87011
H          0.53614       -3.31460       -0.48884
H          2.05075       -2.75437        0.19526
H          0.74939       -3.06922        2.05660
H          0.64271       -1.34436        1.84739
H         -3.03454       -4.06124        0.82965
H         -1.77906       -3.86237       -0.37753
H         -1.49719       -5.42033        2.23620
H         -1.65657       -6.09849        0.60872
H         -0.20232       -5.18997        1.05686
H         -3.01546       -2.45658        3.25795
H         -1.70492       -3.57662        3.57130
H         -1.48258       -0.55704        3.88736
H         -1.65842       -1.74923        5.18197
H         -0.19443       -1.72564        4.18661
H         -2.12972       -1.22086       -0.37849
H         -3.37677       -1.31292        0.83713
H         -0.90809        0.45627        1.12580
H         -2.46974        0.99215        0.47857
H         -2.34791        0.45198        2.15305
