19

C          1.16743        0.46031       -0.04579
C          0.32052        0.39287       -1.08136
N         -1.08506        0.34706       -0.99213
C         -1.76010        0.37420        0.18537
C         -3.15215        0.32450        0.22255
C         -3.87898        0.24117       -0.96079
C         -3.17903        0.22262       -2.16163
C         -1.78809        0.27365       -2.15382
C         -5.37935        0.20252       -0.93019
H          0.88761        0.48831        0.99927
H          2.23968        0.49017       -0.23532
H          0.77139        0.37099       -2.07553
H         -1.20097        0.43776        1.11213
H         -3.66464        0.35119        1.18333
H         -3.70827        0.16711       -3.11170
H         -1.23171        0.25620       -3.08805
H         -5.72476       -0.58186       -0.24884
H         -5.77283        1.16806       -0.59717
H         -5.79388       -0.01304       -1.92048
