 xtb: 6.7.1 (edcfbbe)
          12202406453D

 19 19  0     0  0            999 V2000
    1.1521    0.4591   -0.0393 C   0  0  0  0  0  0  0  0  0  0  0  0
    0.3153    0.3944   -1.0626 C   0  0  0  0  0  0  0  0  0  0  0  0
   -1.0960    0.3480   -0.9967 N   0  0  0  0  0  0  0  0  0  0  0  0
   -1.7667    0.3738    0.1716 C   0  0  0  0  0  0  0  0  0  0  0  0
   -3.1363    0.3240    0.2145 C   0  0  0  0  0  0  0  0  0  0  0  0
   -3.8864    0.2447   -0.9664 C   0  0  0  0  0  0  0  0  0  0  0  0
   -3.1626    0.2220   -2.1630 C   0  0  0  0  0  0  0  0  0  0  0  0
   -1.7908    0.2741   -2.1483 C   0  0  0  0  0  0  0  0  0  0  0  0
   -5.3628    0.1974   -0.9371 C   0  0  0  0  0  0  0  0  0  0  0  0
    0.8639    0.4864    0.9969 H   0  0  0  0  0  0  0  0  0  0  0  0
    2.2108    0.4912   -0.2273 H   0  0  0  0  0  0  0  0  0  0  0  0
    0.6871    0.3718   -2.0769 H   0  0  0  0  0  0  0  0  0  0  0  0
   -1.1857    0.4345    1.0774 H   0  0  0  0  0  0  0  0  0  0  0  0
   -3.6342    0.3460    1.1715 H   0  0  0  0  0  0  0  0  0  0  0  0
   -3.6761    0.1623   -3.1098 H   0  0  0  0  0  0  0  0  0  0  0  0
   -1.2232    0.2557   -3.0674 H   0  0  0  0  0  0  0  0  0  0  0  0
   -5.7079   -0.5585   -0.2330 H   0  0  0  0  0  0  0  0  0  0  0  0
   -5.7545    1.1531   -0.5853 H   0  0  0  0  0  0  0  0  0  0  0  0
   -5.7790   -0.0062   -1.9191 H   0  0  0  0  0  0  0  0  0  0  0  0
  1  2  2  0  0  0  0
  2  3  1  0  0  0  0
  3  4  4  0  0  0  0
  4  5  2  0  0  0  0
  5  6  4  0  0  0  0
  6  7  4  0  0  0  0
  3  8  4  0  0  0  0
  7  8  2  0  0  0  0
  6  9  1  0  0  0  0
  1 10  1  0  0  0  0
  1 11  1  0  0  0  0
  2 12  1  0  0  0  0
  4 13  1  0  0  0  0
  5 14  1  0  0  0  0
  7 15  1  0  0  0  0
  8 16  1  0  0  0  0
  9 17  1  0  0  0  0
  9 18  1  0  0  0  0
  9 19  1  0  0  0  0
M  CHG  1   1   1
M  END
