27

C          1.24573       -0.20869        0.14061
C          0.46411       -0.17458       -1.17074
C          0.67838       -1.39556       -2.07067
C         -0.37369       -2.47804       -1.88172
N          0.70738       -1.22357        1.07547
C          1.37894       -2.38412        1.26910
C          0.90831       -3.34213        2.16672
C         -0.26835       -3.08156        2.86768
C         -0.93735       -1.88090        2.66965
C         -0.42666       -0.95912        1.76607
C          1.62840       -4.64448        2.35776
H          1.17672        0.75756        0.65477
H          2.30892       -0.41169       -0.02802
H         -0.60445       -0.01587       -0.98604
H          0.81549        0.70625       -1.72345
H          0.62480       -1.06607       -3.11585
H          1.68030       -1.81531       -1.92754
H         -1.37553       -2.08833       -2.08904
H         -0.18684       -3.30596       -2.57334
H         -0.36994       -2.88394       -0.86866
H          2.28506       -2.53736        0.68946
H         -0.66691       -3.81207        3.57210
H         -1.85201       -1.66612        3.21818
H         -0.91647       -0.00646        1.58513
H          1.80468       -4.82893        3.42242
H          1.03461       -5.46527        1.94318
H          2.60186       -4.63981        1.85640
