28

C          1.42385        0.08538        0.73240
C          0.41406        1.09885        1.25087
C          0.56584        2.48747        0.62305
C          0.30669        2.59264       -0.88444
N         -1.13418        2.79985       -1.28929
C         -1.81511        4.03250       -0.70378
C         -2.86174        3.49695        0.25973
C         -2.96245        2.07073       -0.14567
C         -1.99541        1.69435       -0.98775
C         -1.87856        0.35709       -1.64517
H          1.26977       -0.13712       -0.32660
H          1.32841       -0.85479        1.28521
H          2.44786        0.44979        0.86225
H         -0.59863        0.71034        1.11951
H          0.56243        1.19953        2.33335
H         -0.05768        3.19458        1.17922
H          1.60036        2.81187        0.79912
H          0.83101        3.47548       -1.27033
H          0.68657        1.73257       -1.44461
H         -1.12350        2.93264       -2.31119
H         -1.07316        4.68951       -0.24026
H         -2.28004        4.55700       -1.54710
H         -2.53785        3.58003        1.30169
H         -3.81245        4.02511        0.14344
H         -3.75096        1.41784        0.20973
H         -0.98383       -0.16847       -1.30207
H         -2.74508       -0.27499       -1.42499
H         -1.81584        0.47282       -2.73179
