 xtb: 6.7.1 (edcfbbe)
          12202406453D

 27 27  0     0  0            999 V2000
    1.2649   -0.1918    0.1686 C   0  0  0  0  0  0  0  0  0  0  0  0
    0.4977   -0.1563   -1.1610 C   0  0  0  0  0  0  0  0  0  0  0  0
    0.6481   -1.4149   -2.0215 C   0  0  0  0  0  0  0  0  0  0  0  0
   -0.3455   -2.5237   -1.6852 C   0  0  0  0  0  0  0  0  0  0  0  0
    0.7390   -1.1886    1.0851 N   0  0  0  0  0  0  0  0  0  0  0  0
    1.3875   -2.3421    1.2720 C   0  0  0  0  0  0  0  0  0  0  0  0
    0.8946   -3.3409    2.0992 C   0  0  0  0  0  0  0  0  0  0  0  0
   -0.3216   -3.0991    2.7443 C   0  0  0  0  0  0  0  0  0  0  0  0
   -0.9776   -1.8961    2.5439 C   0  0  0  0  0  0  0  0  0  0  0  0
   -0.4212   -0.9524    1.7039 C   0  0  0  0  0  0  0  0  0  0  0  0
    1.6265   -4.6216    2.2825 C   0  0  0  0  0  0  0  0  0  0  0  0
    1.1941    0.7878    0.6473 H   0  0  0  0  0  0  0  0  0  0  0  0
    2.3167   -0.4086   -0.0239 H   0  0  0  0  0  0  0  0  0  0  0  0
   -0.5609    0.0317   -0.9744 H   0  0  0  0  0  0  0  0  0  0  0  0
    0.8902    0.6985   -1.7128 H   0  0  0  0  0  0  0  0  0  0  0  0
    0.4844   -1.1282   -3.0608 H   0  0  0  0  0  0  0  0  0  0  0  0
    1.6698   -1.7934   -1.9526 H   0  0  0  0  0  0  0  0  0  0  0  0
   -1.3647   -2.1467   -1.7293 H   0  0  0  0  0  0  0  0  0  0  0  0
   -0.2561   -3.3249   -2.4137 H   0  0  0  0  0  0  0  0  0  0  0  0
   -0.1783   -2.9540   -0.7001 H   0  0  0  0  0  0  0  0  0  0  0  0
    2.3214   -2.4738    0.7450 H   0  0  0  0  0  0  0  0  0  0  0  0
   -0.7413   -3.8500    3.3958 H   0  0  0  0  0  0  0  0  0  0  0  0
   -1.9139   -1.6865    3.0353 H   0  0  0  0  0  0  0  0  0  0  0  0
   -0.8965   -0.0005    1.5224 H   0  0  0  0  0  0  0  0  0  0  0  0
    1.8073   -4.8049    3.3402 H   0  0  0  0  0  0  0  0  0  0  0  0
    1.0241   -5.4506    1.9122 H   0  0  0  0  0  0  0  0  0  0  0  0
    2.5767   -4.6203    1.7574 H   0  0  0  0  0  0  0  0  0  0  0  0
  1  2  1  0  0  0  0
  2  3  1  0  0  0  0
  3  4  1  0  0  0  0
  1  5  1  0  0  0  0
  5  6  4  0  0  0  0
  6  7  4  0  0  0  0
  7  8  4  0  0  0  0
  8  9  4  0  0  0  0
  5 10  4  0  0  0  0
  9 10  4  0  0  0  0
  7 11  1  0  0  0  0
  1 12  1  0  0  0  0
  1 13  1  0  0  0  0
  2 14  1  0  0  0  0
  2 15  1  0  0  0  0
  3 16  1  0  0  0  0
  3 17  1  0  0  0  0
  4 18  1  0  0  0  0
  4 19  1  0  0  0  0
  4 20  1  0  0  0  0
  6 21  1  0  0  0  0
  8 22  1  0  0  0  0
  9 23  1  0  0  0  0
 10 24  1  0  0  0  0
 11 25  1  0  0  0  0
 11 26  1  0  0  0  0
 11 27  1  0  0  0  0
M  CHG  1   1   1
M  END
