18

O          1.37440        0.64852        0.52396
N          2.41763        0.08451        0.17992
O          2.88122       -0.96930        0.62418
C          3.15089        0.73468       -0.83203
C          2.89102        1.93805       -1.43794
N          3.89644        2.16128       -2.36726
C          4.75671        1.13236       -2.35008
N          4.33519        0.24544       -1.43516
C          5.02388       -1.01202       -1.14406
C          4.02560        3.32587       -3.23930
H          2.10931        2.67074       -1.31873
H          5.64061        1.03585       -2.97177
H          5.88296       -1.11949       -1.81285
H          5.38337       -1.00013       -0.11209
H          4.34429       -1.85065       -1.31513
H          4.96063        3.84063       -3.00312
H          4.03892        2.98876       -4.27912
H          3.18462        4.00742       -3.08755
