 xtb: 6.7.1 (edcfbbe)
          12202406453D

 53 52  0     0  0            999 V2000
    0.6743    0.4892   -0.7789 C   0  0  0  0  0  0  0  0  0  0  0  0
   -0.4267    1.0784    0.1083 C   0  0  0  0  0  0  0  0  0  0  0  0
   -0.0171    2.4405    0.6754 C   0  0  0  0  0  0  0  0  0  0  0  0
    0.1377    3.5153   -0.3946 C   0  0  0  0  0  0  0  0  0  0  0  0
    0.3363   -1.2009   -1.3876 P   0  0  0  0  0  0  0  0  0  0  0  0
    0.9391   -2.4441   -0.1853 C   0  0  0  0  0  0  0  0  0  0  0  0
    0.3035   -2.4981    1.2070 C   0  0  0  0  0  0  0  0  0  0  0  0
   -0.9950   -3.3030    1.2889 C   0  0  0  0  0  0  0  0  0  0  0  0
   -0.7965   -4.7916    1.0269 C   0  0  0  0  0  0  0  0  0  0  0  0
   -1.4504   -1.3944   -1.7139 C   0  0  0  0  0  0  0  0  0  0  0  0
   -2.0159   -0.4664   -2.7999 C   0  0  0  0  0  0  0  0  0  0  0  0
   -2.0428   -1.0965   -4.1942 C   0  0  0  0  0  0  0  0  0  0  0  0
   -3.1024   -2.1839   -4.3295 C   0  0  0  0  0  0  0  0  0  0  0  0
    1.3296   -1.5813   -2.8810 C   0  0  0  0  0  0  0  0  0  0  0  0
    1.5280   -0.4293   -3.8739 C   0  0  0  0  0  0  0  0  0  0  0  0
    2.8235    0.3478   -3.6218 C   0  0  0  0  0  0  0  0  0  0  0  0
    4.0595   -0.4099   -4.0932 C   0  0  0  0  0  0  0  0  0  0  0  0
    1.6187    0.4464   -0.2267 H   0  0  0  0  0  0  0  0  0  0  0  0
    0.8226    1.1312   -1.6496 H   0  0  0  0  0  0  0  0  0  0  0  0
   -1.3438    1.2026   -0.4702 H   0  0  0  0  0  0  0  0  0  0  0  0
   -0.6429    0.4052    0.9400 H   0  0  0  0  0  0  0  0  0  0  0  0
   -0.7876    2.7553    1.3806 H   0  0  0  0  0  0  0  0  0  0  0  0
    0.9164    2.3400    1.2323 H   0  0  0  0  0  0  0  0  0  0  0  0
   -0.7586    3.5795   -1.0075 H   0  0  0  0  0  0  0  0  0  0  0  0
    0.2928    4.4818    0.0757 H   0  0  0  0  0  0  0  0  0  0  0  0
    0.9912    3.3224   -1.0400 H   0  0  0  0  0  0  0  0  0  0  0  0
    0.8634   -3.4205   -0.6721 H   0  0  0  0  0  0  0  0  0  0  0  0
    2.0064   -2.2138   -0.0847 H   0  0  0  0  0  0  0  0  0  0  0  0
    1.0271   -2.9651    1.8788 H   0  0  0  0  0  0  0  0  0  0  0  0
    0.1324   -1.4863    1.5784 H   0  0  0  0  0  0  0  0  0  0  0  0
   -1.3953   -3.1805    2.2967 H   0  0  0  0  0  0  0  0  0  0  0  0
   -1.7364   -2.9076    0.5934 H   0  0  0  0  0  0  0  0  0  0  0  0
   -0.0426   -5.1999    1.6951 H   0  0  0  0  0  0  0  0  0  0  0  0
   -1.7267   -5.3244    1.2021 H   0  0  0  0  0  0  0  0  0  0  0  0
   -0.4914   -4.9884    0.0014 H   0  0  0  0  0  0  0  0  0  0  0  0
   -1.6260   -2.4415   -1.9732 H   0  0  0  0  0  0  0  0  0  0  0  0
   -1.9457   -1.2004   -0.7585 H   0  0  0  0  0  0  0  0  0  0  0  0
   -3.0406   -0.2042   -2.5298 H   0  0  0  0  0  0  0  0  0  0  0  0
   -1.4445    0.4644   -2.8309 H   0  0  0  0  0  0  0  0  0  0  0  0
   -2.2612   -0.3092   -4.9175 H   0  0  0  0  0  0  0  0  0  0  0  0
   -1.0632   -1.5069   -4.4429 H   0  0  0  0  0  0  0  0  0  0  0  0
   -4.0885   -1.7853   -4.1049 H   0  0  0  0  0  0  0  0  0  0  0  0
   -3.1155   -2.5641   -5.3469 H   0  0  0  0  0  0  0  0  0  0  0  0
   -2.9128   -3.0223   -3.6629 H   0  0  0  0  0  0  0  0  0  0  0  0
    2.3036   -1.9372   -2.5344 H   0  0  0  0  0  0  0  0  0  0  0  0
    0.8291   -2.4310   -3.3554 H   0  0  0  0  0  0  0  0  0  0  0  0
    1.5698   -0.8391   -4.8844 H   0  0  0  0  0  0  0  0  0  0  0  0
    0.6751    0.2512   -3.8424 H   0  0  0  0  0  0  0  0  0  0  0  0
    2.7711    1.2946   -4.1611 H   0  0  0  0  0  0  0  0  0  0  0  0
    2.9237    0.5756   -2.5579 H   0  0  0  0  0  0  0  0  0  0  0  0
    3.9999   -0.6073   -5.1603 H   0  0  0  0  0  0  0  0  0  0  0  0
    4.9520    0.1808   -3.9078 H   0  0  0  0  0  0  0  0  0  0  0  0
    4.1731   -1.3601   -3.5762 H   0  0  0  0  0  0  0  0  0  0  0  0
  1  2  1  0  0  0  0
  2  3  1  0  0  0  0
  3  4  1  0  0  0  0
  1  5  1  0  0  0  0
  5  6  1  0  0  0  0
  6  7  1  0  0  0  0
  7  8  1  0  0  0  0
  8  9  1  0  0  0  0
  5 10  1  0  0  0  0
 10 11  1  0  0  0  0
 11 12  1  0  0  0  0
 12 13  1  0  0  0  0
  5 14  1  0  0  0  0
 14 15  1  0  0  0  0
 15 16  1  0  0  0  0
 16 17  1  0  0  0  0
  1 18  1  0  0  0  0
  1 19  1  0  0  0  0
  2 20  1  0  0  0  0
  2 21  1  0  0  0  0
  3 22  1  0  0  0  0
  3 23  1  0  0  0  0
  4 24  1  0  0  0  0
  4 25  1  0  0  0  0
  4 26  1  0  0  0  0
  6 27  1  0  0  0  0
  6 28  1  0  0  0  0
  7 29  1  0  0  0  0
  7 30  1  0  0  0  0
  8 31  1  0  0  0  0
  8 32  1  0  0  0  0
  9 33  1  0  0  0  0
  9 34  1  0  0  0  0
  9 35  1  0  0  0  0
 10 36  1  0  0  0  0
 10 37  1  0  0  0  0
 11 38  1  0  0  0  0
 11 39  1  0  0  0  0
 12 40  1  0  0  0  0
 12 41  1  0  0  0  0
 13 42  1  0  0  0  0
 13 43  1  0  0  0  0
 13 44  1  0  0  0  0
 14 45  1  0  0  0  0
 14 46  1  0  0  0  0
 15 47  1  0  0  0  0
 15 48  1  0  0  0  0
 16 49  1  0  0  0  0
 16 50  1  0  0  0  0
 17 51  1  0  0  0  0
 17 52  1  0  0  0  0
 17 53  1  0  0  0  0
M  CHG  1   1   1
M  END
