33

O          0.70058       -0.17147       -0.41202
C          0.15333       -1.36652        0.11286
C          1.07268       -2.54077       -0.19430
C          2.58488       -2.30740       -0.06290
N          3.19959       -2.37632        1.35934
C          2.70485       -3.64363        2.13942
C          2.92499       -4.97000        1.42441
C          4.75433       -2.47446        1.27549
C          5.44111       -1.50109        0.32909
C          2.77734       -1.18232        2.25796
C          3.14570        0.20528        1.77154
H         -0.01843        0.48667       -0.45690
H         -0.00568       -1.24212        1.18561
H         -0.82654       -1.53788       -0.34639
H          0.72965       -3.42652        0.34641
H          0.91176       -2.77693       -1.25615
H          3.09756       -3.08975       -0.63603
H          2.87642       -1.35677       -0.51398
H          3.23340       -3.64868        3.10047
H          1.63896       -3.49979        2.34644
H          3.98289       -5.23256        1.34844
H          2.44873       -5.76968        2.00287
H          2.48781       -4.99550        0.42408
H          5.14025       -2.37170        2.29570
H          4.99170       -3.47961        0.91999
H          5.37532       -0.46356        0.65022
H          6.51023       -1.74118        0.29188
H          5.07039       -1.57664       -0.69606
H          1.69695       -1.25495        2.39407
H          3.23331       -1.35018        3.24173
H          3.03484        0.34975        0.69704
H          2.50118        0.94162        2.26528
H          4.16740        0.46271        2.06328
