 xtb: 6.7.1 (edcfbbe)
          12202406453D

 37 38  0     0  0            999 V2000
    3.3213    2.2999    0.5698 N   0  0  0  0  0  0  0  0  0  0  0  0
    3.2525    1.2807    0.0544 C   0  0  0  0  0  0  0  0  0  0  0  0
    3.1964    0.0266   -0.6482 C   0  0  0  0  0  0  0  0  0  0  0  0
    4.3399   -0.1144   -1.6634 C   0  0  0  0  0  0  0  0  0  0  0  0
    4.3220    0.9493   -2.7687 C   0  0  0  0  0  0  0  0  0  0  0  0
    4.5526    2.2791   -2.2443 N   0  0  0  0  0  0  0  0  0  0  0  0
    5.5990    2.6301   -1.4998 C   0  0  0  0  0  0  0  0  0  0  0  0
    5.4478    3.8836   -1.0872 N   0  0  0  0  0  0  0  0  0  0  0  0
    4.2809    4.3591   -1.6042 C   0  0  0  0  0  0  0  0  0  0  0  0
    3.7079    3.3581   -2.3379 C   0  0  0  0  0  0  0  0  0  0  0  0
    2.4652    3.3760   -3.1185 C   0  0  0  0  0  0  0  0  0  0  0  0
    1.3360    2.6914   -2.6782 C   0  0  0  0  0  0  0  0  0  0  0  0
    0.1710    2.7295   -3.4234 C   0  0  0  0  0  0  0  0  0  0  0  0
    0.1257    3.4465   -4.6076 C   0  0  0  0  0  0  0  0  0  0  0  0
    1.2449    4.1371   -5.0431 C   0  0  0  0  0  0  0  0  0  0  0  0
    2.4125    4.1072   -4.3022 C   0  0  0  0  0  0  0  0  0  0  0  0
    6.2840    4.5470   -0.1137 C   0  0  0  0  0  0  0  0  0  0  0  0
    5.9782    4.0079    1.2966 C   0  0  0  0  0  0  0  0  0  0  0  0
    6.2573    2.5947    1.3550 C   0  0  0  0  0  0  0  0  0  0  0  0
    6.4725    1.4736    1.3093 N   0  0  0  0  0  0  0  0  0  0  0  0
    3.2702   -0.7751    0.0920 H   0  0  0  0  0  0  0  0  0  0  0  0
    2.2256   -0.0597   -1.1453 H   0  0  0  0  0  0  0  0  0  0  0  0
    5.2925   -0.0869   -1.1316 H   0  0  0  0  0  0  0  0  0  0  0  0
    4.2530   -1.0903   -2.1422 H   0  0  0  0  0  0  0  0  0  0  0  0
    5.1018    0.7178   -3.5004 H   0  0  0  0  0  0  0  0  0  0  0  0
    3.3568    0.9609   -3.2810 H   0  0  0  0  0  0  0  0  0  0  0  0
    6.4325    1.9991   -1.2620 H   0  0  0  0  0  0  0  0  0  0  0  0
    3.9223    5.3500   -1.4154 H   0  0  0  0  0  0  0  0  0  0  0  0
    1.3633    2.1653   -1.7361 H   0  0  0  0  0  0  0  0  0  0  0  0
   -0.7040    2.2035   -3.0745 H   0  0  0  0  0  0  0  0  0  0  0  0
   -0.7842    3.4741   -5.1860 H   0  0  0  0  0  0  0  0  0  0  0  0
    1.2089    4.7040   -5.9600 H   0  0  0  0  0  0  0  0  0  0  0  0
    3.2863    4.6445   -4.6384 H   0  0  0  0  0  0  0  0  0  0  0  0
    7.3340    4.3704   -0.3631 H   0  0  0  0  0  0  0  0  0  0  0  0
    6.0823    5.6187   -0.1524 H   0  0  0  0  0  0  0  0  0  0  0  0
    6.5923    4.5297    2.0330 H   0  0  0  0  0  0  0  0  0  0  0  0
    4.9230    4.1536    1.5441 H   0  0  0  0  0  0  0  0  0  0  0  0
  1  2  3  0  0  0  0
  2  3  1  0  0  0  0
  3  4  1  0  0  0  0
  4  5  1  0  0  0  0
  5  6  1  0  0  0  0
  6  7  4  0  0  0  0
  7  8  4  0  0  0  0
  8  9  4  0  0  0  0
  6 10  1  0  0  0  0
  9 10  2  0  0  0  0
 10 11  1  0  0  0  0
 11 12  4  0  0  0  0
 12 13  4  0  0  0  0
 13 14  4  0  0  0  0
 14 15  4  0  0  0  0
 11 16  4  0  0  0  0
 15 16  4  0  0  0  0
  8 17  1  0  0  0  0
 17 18  1  0  0  0  0
 18 19  1  0  0  0  0
 19 20  3  0  0  0  0
  3 21  1  0  0  0  0
  3 22  1  0  0  0  0
  4 23  1  0  0  0  0
  4 24  1  0  0  0  0
  5 25  1  0  0  0  0
  5 26  1  0  0  0  0
  7 27  1  0  0  0  0
  9 28  1  0  0  0  0
 12 29  1  0  0  0  0
 13 30  1  0  0  0  0
 14 31  1  0  0  0  0
 15 32  1  0  0  0  0
 16 33  1  0  0  0  0
 17 34  1  0  0  0  0
 17 35  1  0  0  0  0
 18 36  1  0  0  0  0
 18 37  1  0  0  0  0
M  CHG  1   1   1
M  END
