90

C          1.16456        0.77065        0.07591
C          1.25816        0.90089       -1.43701
C          1.69275       -0.38966       -2.13747
C          0.78854       -1.60295       -1.90224
C         -0.66710       -1.42185       -2.33864
C         -0.88134       -1.22695       -3.84369
C         -0.40621       -2.37713       -4.74275
C         -0.88690       -3.78091       -4.35251
C         -2.40089       -3.92578       -4.18519
C         -3.18455       -3.95169       -5.49934
C         -3.39100       -5.35073       -6.09654
C         -4.10946       -6.38775       -5.22236
O         -5.53182       -6.32539       -5.26298
C         -6.15854       -5.32743       -4.48461
N         -5.89311       -5.54238       -3.07301
C         -6.22119       -6.67943       -2.35405
C         -5.84192       -6.44880       -1.06245
N         -5.26324       -5.19068       -1.03428
C         -5.34168       -4.63699       -2.25287
C         -4.70652       -4.51463        0.12434
O         -3.42969       -3.99459       -0.18450
C         -2.40222       -4.92982       -0.50554
C         -1.94366       -5.85373        0.62805
C         -2.70597       -7.17695        0.78562
C         -2.74080       -8.06979       -0.45892
C         -1.52013       -8.97647       -0.63323
C         -1.41104      -10.12922        0.37328
C         -2.67367      -10.98147        0.55534
C         -3.28187      -11.55117       -0.73116
C         -2.39655      -12.54245       -1.48919
C         -2.03482      -13.81712       -0.72105
C         -3.21932      -14.62028       -0.17616
C         -4.19781      -15.07073       -1.25013
H          0.35853        0.09249        0.37164
H          0.95536        1.74668        0.52536
H          2.10337        0.39771        0.49737
H          0.29779        1.24692       -1.83432
H          1.98896        1.68345       -1.67404
H          1.77312       -0.19581       -3.21338
H          2.70473       -0.64754       -1.80047
H          1.22417       -2.46702       -2.41690
H          0.80116       -1.86175       -0.83669
H         -1.23698       -2.29311       -2.00035
H         -1.10909       -0.56968       -1.80981
H         -1.95126       -1.05931       -4.01891
H         -0.38724       -0.30364       -4.16844
H         -0.71987       -2.15995       -5.77082
H          0.69048       -2.38395       -4.76317
H         -0.52674       -4.50114       -5.09708
H         -0.40849       -4.06475       -3.40739
H         -2.58549       -4.83469       -3.61087
H         -2.78794       -3.11186       -3.56482
H         -4.15239       -3.47356       -5.33823
H         -2.68396       -3.32673       -6.24796
H         -3.94247       -5.24015       -7.03815
H         -2.40084       -5.74985       -6.34973
H         -3.86328       -7.37196       -5.63960
H         -3.74988       -6.41753       -4.19158
H         -5.87491       -4.32246       -4.79090
H         -7.24029       -5.41426       -4.63408
H         -6.68633       -7.50555       -2.86529
H         -5.89784       -7.02948       -0.15746
H         -5.00528       -3.64154       -2.52085
H         -5.36510       -3.67064        0.35605
H         -4.68438       -5.15565        1.00591
H         -2.66589       -5.46602       -1.41682
H         -1.53852       -4.31112       -0.77471
H         -0.88937       -6.10367        0.45522
H         -1.99196       -5.30919        1.57860
H         -2.27260       -7.72673        1.62900
H         -3.73512       -6.97134        1.08593
H         -3.64941       -8.67809       -0.41337
H         -2.85312       -7.47663       -1.36949
H         -1.55189       -9.40120       -1.64422
H         -0.60311       -8.37669       -0.58970
H         -0.57978      -10.77641        0.06800
H         -1.12683       -9.72548        1.35252
H         -2.44661      -11.79789        1.25066
H         -3.43849      -10.37871        1.06041
H         -4.23615      -12.02852       -0.48025
H         -3.54209      -10.73578       -1.41506
H         -2.90728      -12.81840       -2.41991
H         -1.46972      -12.04531       -1.79893
H         -1.44760      -14.46225       -1.38670
H         -1.37117      -13.56246        0.11365
H         -2.82746      -15.50880        0.33327
H         -3.75413      -14.04165        0.58505
H         -3.68753      -15.64063       -2.03275
H         -4.96829      -15.71233       -0.81055
H         -4.70424      -14.22020       -1.71600
