33

C          1.42917       -0.05479       -0.23210
C          0.86959       -1.45901       -0.39341
C          0.88949       -2.29303        0.88999
C          0.23734       -1.71062        2.15031
N         -1.31180       -1.82027        2.25824
C         -1.98070       -0.92769        1.21691
C         -1.75379       -3.28215        2.10010
C         -3.22217       -3.48147        2.45522
C         -3.53821       -2.99837        3.86084
C         -3.12729       -1.54690        4.04615
C         -1.66601       -1.31602        3.68102
H          0.78348        0.56725        0.39355
H          1.50616        0.43158       -1.21004
H          2.42863       -0.07762        0.21326
H         -0.13305       -1.40857       -0.82151
H          1.47970       -1.98333       -1.14027
H          0.50659       -3.29437        0.67143
H          1.94910       -2.44841        1.13870
H          0.63063       -2.26679        3.01104
H          0.49748       -0.65733        2.29909
H         -1.49727        0.05247        1.23442
H         -1.89162       -1.40119        0.23939
H         -3.04099       -0.81859        1.45033
H         -1.11384       -3.88553        2.75467
H         -1.58299       -3.57615        1.06005
H         -3.46748       -4.54703        2.37633
H         -3.86319       -2.96491        1.73136
H         -4.60972       -3.10989        4.06088
H         -3.01096       -3.62505        4.59080
H         -3.78267       -0.89573        3.45788
H         -3.28174       -1.26091        5.09338
H         -1.41146       -0.25099        3.72451
H         -1.02390       -1.86094        4.38382
