 xtb: 6.7.1 (edcfbbe)
          12202406453D

 54 55  0     0  0            999 V2000
    1.2036   -0.0804    0.2759 C   0  0  0  0  0  0  0  0  0  0  0  0
    0.8479    0.3658   -1.1373 C   0  0  0  0  0  0  0  0  0  0  0  0
    1.2570   -0.6442   -2.2107 C   0  0  0  0  0  0  0  0  0  0  0  0
    0.5985   -2.0199   -2.0875 C   0  0  0  0  0  0  0  0  0  0  0  0
   -0.9308   -2.0121   -2.1313 C   0  0  0  0  0  0  0  0  0  0  0  0
   -1.5380   -1.4026   -3.3964 C   0  0  0  0  0  0  0  0  0  0  0  0
   -1.1106   -2.0707   -4.7046 C   0  0  0  0  0  0  0  0  0  0  0  0
   -1.4347   -3.5626   -4.8028 C   0  0  0  0  0  0  0  0  0  0  0  0
   -2.9181   -3.9132   -4.6599 C   0  0  0  0  0  0  0  0  0  0  0  0
   -3.8470   -3.2100   -5.6535 C   0  0  0  0  0  0  0  0  0  0  0  0
   -3.5063   -3.4367   -7.1259 C   0  0  0  0  0  0  0  0  0  0  0  0
   -3.6834   -4.8901   -7.5875 C   0  0  0  0  0  0  0  0  0  0  0  0
   -5.0869   -5.2569   -7.5815 N   0  0  0  0  0  0  0  0  0  0  0  0
   -5.8580   -4.8946   -8.6388 C   0  0  0  0  0  0  0  0  0  0  0  0
   -7.1970   -5.1411   -8.6579 C   0  0  0  0  0  0  0  0  0  0  0  0
   -7.8202   -5.7801   -7.5632 C   0  0  0  0  0  0  0  0  0  0  0  0
   -6.9903   -6.1486   -6.4603 C   0  0  0  0  0  0  0  0  0  0  0  0
   -5.6240   -5.8548   -6.5318 C   0  0  0  0  0  0  0  0  0  0  0  0
   -7.5659   -6.7932   -5.3424 C   0  0  0  0  0  0  0  0  0  0  0  0
   -8.9078   -7.0583   -5.3272 C   0  0  0  0  0  0  0  0  0  0  0  0
   -9.7236   -6.6950   -6.4138 C   0  0  0  0  0  0  0  0  0  0  0  0
   -9.1950   -6.0679   -7.5125 C   0  0  0  0  0  0  0  0  0  0  0  0
    0.6263   -0.9533    0.5705 H   0  0  0  0  0  0  0  0  0  0  0  0
    0.9944    0.7168    0.9855 H   0  0  0  0  0  0  0  0  0  0  0  0
    2.2609   -0.3275    0.3420 H   0  0  0  0  0  0  0  0  0  0  0  0
   -0.2242    0.5620   -1.1984 H   0  0  0  0  0  0  0  0  0  0  0  0
    1.3611    1.3072   -1.3484 H   0  0  0  0  0  0  0  0  0  0  0  0
    1.0342   -0.2204   -3.1925 H   0  0  0  0  0  0  0  0  0  0  0  0
    2.3395   -0.7853   -2.1591 H   0  0  0  0  0  0  0  0  0  0  0  0
    0.9821   -2.6551   -2.8894 H   0  0  0  0  0  0  0  0  0  0  0  0
    0.9071   -2.4782   -1.1464 H   0  0  0  0  0  0  0  0  0  0  0  0
   -1.2818   -3.0407   -2.0169 H   0  0  0  0  0  0  0  0  0  0  0  0
   -1.3089   -1.4526   -1.2739 H   0  0  0  0  0  0  0  0  0  0  0  0
   -2.6267   -1.4375   -3.3058 H   0  0  0  0  0  0  0  0  0  0  0  0
   -1.2593   -0.3492   -3.4518 H   0  0  0  0  0  0  0  0  0  0  0  0
   -1.5809   -1.5363   -5.5337 H   0  0  0  0  0  0  0  0  0  0  0  0
   -0.0328   -1.9550   -4.8258 H   0  0  0  0  0  0  0  0  0  0  0  0
   -1.0575   -3.9373   -5.7580 H   0  0  0  0  0  0  0  0  0  0  0  0
   -0.8910   -4.0948   -4.0213 H   0  0  0  0  0  0  0  0  0  0  0  0
   -3.0189   -4.9991   -4.7475 H   0  0  0  0  0  0  0  0  0  0  0  0
   -3.2483   -3.6487   -3.6548 H   0  0  0  0  0  0  0  0  0  0  0  0
   -4.8784   -3.5234   -5.4591 H   0  0  0  0  0  0  0  0  0  0  0  0
   -3.8060   -2.1371   -5.4668 H   0  0  0  0  0  0  0  0  0  0  0  0
   -4.1336   -2.7890   -7.7425 H   0  0  0  0  0  0  0  0  0  0  0  0
   -2.4692   -3.1574   -7.3051 H   0  0  0  0  0  0  0  0  0  0  0  0
   -3.2972   -5.0031   -8.6023 H   0  0  0  0  0  0  0  0  0  0  0  0
   -3.1327   -5.5602   -6.9272 H   0  0  0  0  0  0  0  0  0  0  0  0
   -5.3538   -4.4088   -9.4594 H   0  0  0  0  0  0  0  0  0  0  0  0
   -7.7861   -4.8492   -9.5130 H   0  0  0  0  0  0  0  0  0  0  0  0
   -4.9677   -6.1280   -5.7173 H   0  0  0  0  0  0  0  0  0  0  0  0
   -6.9352   -7.0693   -4.5116 H   0  0  0  0  0  0  0  0  0  0  0  0
   -9.3523   -7.5511   -4.4767 H   0  0  0  0  0  0  0  0  0  0  0  0
  -10.7788   -6.9168   -6.3752 H   0  0  0  0  0  0  0  0  0  0  0  0
   -9.8206   -5.7897   -8.3460 H   0  0  0  0  0  0  0  0  0  0  0  0
  1  2  1  0  0  0  0
  2  3  1  0  0  0  0
  3  4  1  0  0  0  0
  4  5  1  0  0  0  0
  5  6  1  0  0  0  0
  6  7  1  0  0  0  0
  7  8  1  0  0  0  0
  8  9  1  0  0  0  0
  9 10  1  0  0  0  0
 10 11  1  0  0  0  0
 11 12  1  0  0  0  0
 12 13  1  0  0  0  0
 13 14  4  0  0  0  0
 14 15  2  0  0  0  0
 15 16  4  0  0  0  0
 16 17  4  0  0  0  0
 13 18  4  0  0  0  0
 17 18  4  0  0  0  0
 17 19  4  0  0  0  0
 19 20  2  0  0  0  0
 20 21  4  0  0  0  0
 16 22  4  0  0  0  0
 21 22  2  0  0  0  0
  1 23  1  0  0  0  0
  1 24  1  0  0  0  0
  1 25  1  0  0  0  0
  2 26  1  0  0  0  0
  2 27  1  0  0  0  0
  3 28  1  0  0  0  0
  3 29  1  0  0  0  0
  4 30  1  0  0  0  0
  4 31  1  0  0  0  0
  5 32  1  0  0  0  0
  5 33  1  0  0  0  0
  6 34  1  0  0  0  0
  6 35  1  0  0  0  0
  7 36  1  0  0  0  0
  7 37  1  0  0  0  0
  8 38  1  0  0  0  0
  8 39  1  0  0  0  0
  9 40  1  0  0  0  0
  9 41  1  0  0  0  0
 10 42  1  0  0  0  0
 10 43  1  0  0  0  0
 11 44  1  0  0  0  0
 11 45  1  0  0  0  0
 12 46  1  0  0  0  0
 12 47  1  0  0  0  0
 14 48  1  0  0  0  0
 15 49  1  0  0  0  0
 18 50  1  0  0  0  0
 19 51  1  0  0  0  0
 20 52  1  0  0  0  0
 21 53  1  0  0  0  0
 22 54  1  0  0  0  0
M  CHG  1   1   1
M  END
