44

O          1.45825        0.27651        0.79755
C          2.61950        0.11219        0.42053
C          3.08055        0.72077       -0.85723
C          4.14576        0.18611       -1.59396
C          4.59310        0.83792       -2.75001
C          3.96958        2.02186       -3.17069
C          2.88510        2.54361       -2.45465
C          2.43954        1.88681       -1.30293
N          4.46771        2.72685       -4.36051
O          5.41472        2.21374       -4.97193
O          3.92208        3.79523       -4.66351
C          3.63383       -0.63263        1.28237
N          3.39946       -0.28997        2.69663
C          3.98566        0.75270        3.39223
C          3.34474        0.82928        4.59499
N          2.37467       -0.16092        4.59715
C          2.44950       -0.86520        3.45340
C          1.42269       -0.41027        5.69446
C          0.18743       -1.15547        5.22856
O          0.20833       -2.34672        4.93023
C         -1.05375       -0.38146        5.03899
C         -2.21127       -0.77404        5.71887
C         -3.39959       -0.06246        5.52855
C         -3.42311        1.02266        4.63940
C         -2.26380        1.40172        3.94476
C         -1.07382        0.69797        4.14765
N         -4.67317        1.76518        4.42463
O         -5.64870        1.45842        5.12173
O         -4.66609        2.65735        3.56572
H          4.64109       -0.73825       -1.30664
H          5.42665        0.41546       -3.31132
H          2.38343        3.45631       -2.77482
H          1.59717        2.30300       -0.75036
H          3.50293       -1.71041        1.14676
H          4.66231       -0.35481        1.03696
H          4.77038        1.32660        2.92965
H          3.43914        1.48054        5.44744
H          1.83790       -1.71367        3.16218
H          1.92729       -1.01009        6.45938
H          1.14278        0.54671        6.14782
H         -2.20032       -1.63172        6.39016
H         -4.29642       -0.37048        6.06533
H         -2.27942        2.22896        3.23584
H         -0.19229        0.98141        3.57626
