 xtb: 6.7.1 (edcfbbe)
          12202406453D

 15 15  0     0  0            999 V2000
    1.0109    0.0055    0.0080 C   0  0  0  0  0  0  0  0  0  0  0  0
    0.4895    1.2004    0.6099 N   0  0  0  0  0  0  0  0  0  0  0  0
   -0.6187    1.3719    1.3577 C   0  0  0  0  0  0  0  0  0  0  0  0
   -0.6234    2.6977    1.6563 N   0  0  0  0  0  0  0  0  0  0  0  0
    0.4611    3.2618    1.0840 N   0  0  0  0  0  0  0  0  0  0  0  0
    1.0970    2.3919    0.4794 N   0  0  0  0  0  0  0  0  0  0  0  0
   -1.5859    3.3234    2.4007 N   0  0  0  0  0  0  0  0  0  0  0  0
   -1.5198    0.4920    1.7461 N   0  0  0  0  0  0  0  0  0  0  0  0
    0.3078   -0.3942   -0.7236 H   0  0  0  0  0  0  0  0  0  0  0  0
    1.2221   -0.7462    0.7688 H   0  0  0  0  0  0  0  0  0  0  0  0
    1.9367    0.2765   -0.4963 H   0  0  0  0  0  0  0  0  0  0  0  0
   -1.9756    4.1210    1.9008 H   0  0  0  0  0  0  0  0  0  0  0  0
   -1.2179    3.6533    3.2924 H   0  0  0  0  0  0  0  0  0  0  0  0
   -2.3063    0.8139    2.2918 H   0  0  0  0  0  0  0  0  0  0  0  0
   -1.4655   -0.4786    1.4843 H   0  0  0  0  0  0  0  0  0  0  0  0
  1  2  1  0  0  0  0
  2  3  4  0  0  0  0
  3  4  4  0  0  0  0
  4  5  1  0  0  0  0
  2  6  1  0  0  0  0
  5  6  2  0  0  0  0
  4  7  1  0  0  0  0
  3  8  4  0  0  0  0
  1  9  1  0  0  0  0
  1 10  1  0  0  0  0
  1 11  1  0  0  0  0
  7 12  1  0  0  0  0
  7 13  1  0  0  0  0
  8 14  1  0  0  0  0
  8 15  1  0  0  0  0
M  CHG  1   1   1
M  END
