 xtb: 6.7.1 (edcfbbe)
          12202406453D

 44 48  0     0  0            999 V2000
    2.8333    2.0237    0.6528 O   0  0  0  0  0  0  0  0  0  0  0  0
    3.4685    1.1117    0.1826 C   0  0  0  0  0  0  0  0  0  0  0  0
    4.0626    1.1315   -1.1607 C   0  0  0  0  0  0  0  0  0  0  0  0
    4.6743    0.0195   -1.7497 C   0  0  0  0  0  0  0  0  0  0  0  0
    5.1866    0.1132   -3.0282 C   0  0  0  0  0  0  0  0  0  0  0  0
    5.0922    1.3166   -3.7157 C   0  0  0  0  0  0  0  0  0  0  0  0
    4.4920    2.4325   -3.1493 C   0  0  0  0  0  0  0  0  0  0  0  0
    3.9770    2.3347   -1.8733 C   0  0  0  0  0  0  0  0  0  0  0  0
    5.6344    1.4054   -5.0689 N   0  0  0  0  0  0  0  0  0  0  0  0
    6.1223    0.4019   -5.5274 O   0  0  0  0  0  0  0  0  0  0  0  0
    5.5508    2.4740   -5.6209 O   0  0  0  0  0  0  0  0  0  0  0  0
    3.6602   -0.1767    1.0243 C   0  0  0  0  0  0  0  0  0  0  0  0
    3.1581    0.0631    2.3467 N   0  0  0  0  0  0  0  0  0  0  0  0
    3.8717    0.0824    3.5090 C   0  0  0  0  0  0  0  0  0  0  0  0
    3.0339    0.5115    4.4901 C   0  0  0  0  0  0  0  0  0  0  0  0
    1.8289    0.7740    3.9075 N   0  0  0  0  0  0  0  0  0  0  0  0
    1.9252    0.4906    2.6104 C   0  0  0  0  0  0  0  0  0  0  0  0
    0.6021    1.1179    4.5675 C   0  0  0  0  0  0  0  0  0  0  0  0
   -0.4347   -0.0046    4.3044 C   0  0  0  0  0  0  0  0  0  0  0  0
   -0.1584   -0.8801    3.5213 O   0  0  0  0  0  0  0  0  0  0  0  0
   -1.7143    0.0835    5.0210 C   0  0  0  0  0  0  0  0  0  0  0  0
   -2.5989   -0.9927    4.8736 C   0  0  0  0  0  0  0  0  0  0  0  0
   -3.8300   -0.9791    5.4960 C   0  0  0  0  0  0  0  0  0  0  0  0
   -4.1781    0.1219    6.2661 C   0  0  0  0  0  0  0  0  0  0  0  0
   -3.3175    1.2006    6.4245 C   0  0  0  0  0  0  0  0  0  0  0  0
   -2.0841    1.1820    5.8048 C   0  0  0  0  0  0  0  0  0  0  0  0
   -5.4822    0.1522    6.9229 N   0  0  0  0  0  0  0  0  0  0  0  0
   -6.1907   -0.8118    6.7734 O   0  0  0  0  0  0  0  0  0  0  0  0
   -5.7473    1.1399    7.5628 O   0  0  0  0  0  0  0  0  0  0  0  0
    4.7460   -0.9222   -1.2301 H   0  0  0  0  0  0  0  0  0  0  0  0
    5.6590   -0.7304   -3.5089 H   0  0  0  0  0  0  0  0  0  0  0  0
    4.4362    3.3505   -3.7146 H   0  0  0  0  0  0  0  0  0  0  0  0
    3.5006    3.1818   -1.4041 H   0  0  0  0  0  0  0  0  0  0  0  0
    3.0995   -0.9863    0.5468 H   0  0  0  0  0  0  0  0  0  0  0  0
    4.7151   -0.4476    1.0797 H   0  0  0  0  0  0  0  0  0  0  0  0
    4.9003   -0.2107    3.5631 H   0  0  0  0  0  0  0  0  0  0  0  0
    3.2152    0.6513    5.5362 H   0  0  0  0  0  0  0  0  0  0  0  0
    1.1354    0.5898    1.8928 H   0  0  0  0  0  0  0  0  0  0  0  0
    0.7839    1.2300    5.6371 H   0  0  0  0  0  0  0  0  0  0  0  0
    0.2056    2.0547    4.1641 H   0  0  0  0  0  0  0  0  0  0  0  0
   -2.2979   -1.8311    4.2644 H   0  0  0  0  0  0  0  0  0  0  0  0
   -4.5256   -1.7986    5.3953 H   0  0  0  0  0  0  0  0  0  0  0  0
   -3.6308    2.0379    7.0300 H   0  0  0  0  0  0  0  0  0  0  0  0
   -1.4290    2.0290    5.9282 H   0  0  0  0  0  0  0  0  0  0  0  0
  1  2  2  0  0  0  0
  2  3  1  0  0  0  0
  3  4  4  0  0  0  0
  4  5  4  0  0  0  0
  5  6  4  0  0  0  0
  6  7  4  0  0  0  0
  3  8  4  0  0  0  0
  7  8  4  0  0  0  0
  6  9  1  0  0  0  0
  9 10  4  0  0  0  0
  9 11  4  0  0  0  0
 10 11  1  0  0  0  0
  2 12  1  0  0  0  0
 12 13  1  0  0  0  0
 13 14  4  0  0  0  0
 14 15  2  0  0  0  0
 15 16  4  0  0  0  0
 13 17  4  0  0  0  0
 16 17  4  0  0  0  0
 16 18  1  0  0  0  0
 18 19  1  0  0  0  0
 19 20  2  0  0  0  0
 19 21  1  0  0  0  0
 21 22  4  0  0  0  0
 22 23  4  0  0  0  0
 23 24  4  0  0  0  0
 24 25  4  0  0  0  0
 21 26  4  0  0  0  0
 25 26  4  0  0  0  0
 24 27  1  0  0  0  0
 27 28  4  0  0  0  0
 27 29  4  0  0  0  0
 28 29  1  0  0  0  0
  4 30  1  0  0  0  0
  5 31  1  0  0  0  0
  7 32  1  0  0  0  0
  8 33  1  0  0  0  0
 12 34  1  0  0  0  0
 12 35  1  0  0  0  0
 14 36  1  0  0  0  0
 15 37  1  0  0  0  0
 17 38  1  0  0  0  0
 18 39  1  0  0  0  0
 18 40  1  0  0  0  0
 22 41  1  0  0  0  0
 23 42  1  0  0  0  0
 25 43  1  0  0  0  0
 26 44  1  0  0  0  0
M  CHG  1   1   1
M  END
