 xtb: 6.7.1 (edcfbbe)
          12202406453D

 33 32  0     0  0            999 V2000
    1.0565   -0.2485   -0.8111 O   0  0  0  0  0  0  0  0  0  0  0  0
    0.3092   -1.1435   -0.0133 C   0  0  0  0  0  0  0  0  0  0  0  0
    1.0323   -2.5010    0.0251 C   0  0  0  0  0  0  0  0  0  0  0  0
    2.5589   -2.3835    0.1018 C   0  0  0  0  0  0  0  0  0  0  0  0
    3.1921   -2.4112    1.4502 N   0  0  0  0  0  0  0  0  0  0  0  0
    2.8610   -3.6818    2.1805 C   0  0  0  0  0  0  0  0  0  0  0  0
    2.9829   -4.9684    1.3774 C   0  0  0  0  0  0  0  0  0  0  0  0
    4.6908   -2.3476    1.3152 C   0  0  0  0  0  0  0  0  0  0  0  0
    5.2675   -1.5666    0.1416 C   0  0  0  0  0  0  0  0  0  0  0  0
    2.7004   -1.2982    2.3215 C   0  0  0  0  0  0  0  0  0  0  0  0
    3.0186    0.1150    1.8624 C   0  0  0  0  0  0  0  0  0  0  0  0
    0.4785    0.4341   -1.1637 H   0  0  0  0  0  0  0  0  0  0  0  0
    0.1849   -0.7212    0.9941 H   0  0  0  0  0  0  0  0  0  0  0  0
   -0.6907   -1.3031   -0.4284 H   0  0  0  0  0  0  0  0  0  0  0  0
    0.6057   -3.1086    0.8206 H   0  0  0  0  0  0  0  0  0  0  0  0
    0.8170   -3.0029   -0.9192 H   0  0  0  0  0  0  0  0  0  0  0  0
    3.0085   -3.1967   -0.4661 H   0  0  0  0  0  0  0  0  0  0  0  0
    2.8202   -1.4445   -0.3844 H   0  0  0  0  0  0  0  0  0  0  0  0
    3.5249   -3.7310    3.0466 H   0  0  0  0  0  0  0  0  0  0  0  0
    1.8392   -3.6023    2.5541 H   0  0  0  0  0  0  0  0  0  0  0  0
    3.9597   -5.0919    0.9176 H   0  0  0  0  0  0  0  0  0  0  0  0
    2.8417   -5.7999    2.0638 H   0  0  0  0  0  0  0  0  0  0  0  0
    2.2195   -5.0459    0.6093 H   0  0  0  0  0  0  0  0  0  0  0  0
    5.0737   -1.9326    2.2492 H   0  0  0  0  0  0  0  0  0  0  0  0
    5.0561   -3.3717    1.2333 H   0  0  0  0  0  0  0  0  0  0  0  0
    4.9151   -0.5428    0.0902 H   0  0  0  0  0  0  0  0  0  0  0  0
    6.3466   -1.5366    0.2765 H   0  0  0  0  0  0  0  0  0  0  0  0
    5.0743   -2.0535   -0.8094 H   0  0  0  0  0  0  0  0  0  0  0  0
    1.6193   -1.4104    2.4037 H   0  0  0  0  0  0  0  0  0  0  0  0
    3.1282   -1.4544    3.3152 H   0  0  0  0  0  0  0  0  0  0  0  0
    2.6469    0.3156    0.8619 H   0  0  0  0  0  0  0  0  0  0  0  0
    2.5174    0.8007    2.5417 H   0  0  0  0  0  0  0  0  0  0  0  0
    4.0807    0.3329    1.9108 H   0  0  0  0  0  0  0  0  0  0  0  0
  1  2  1  0  0  0  0
  2  3  1  0  0  0  0
  3  4  1  0  0  0  0
  4  5  1  0  0  0  0
  5  6  1  0  0  0  0
  6  7  1  0  0  0  0
  5  8  1  0  0  0  0
  8  9  1  0  0  0  0
  5 10  1  0  0  0  0
 10 11  1  0  0  0  0
  1 12  1  0  0  0  0
  2 13  1  0  0  0  0
  2 14  1  0  0  0  0
  3 15  1  0  0  0  0
  3 16  1  0  0  0  0
  4 17  1  0  0  0  0
  4 18  1  0  0  0  0
  6 19  1  0  0  0  0
  6 20  1  0  0  0  0
  7 21  1  0  0  0  0
  7 22  1  0  0  0  0
  7 23  1  0  0  0  0
  8 24  1  0  0  0  0
  8 25  1  0  0  0  0
  9 26  1  0  0  0  0
  9 27  1  0  0  0  0
  9 28  1  0  0  0  0
 10 29  1  0  0  0  0
 10 30  1  0  0  0  0
 11 31  1  0  0  0  0
 11 32  1  0  0  0  0
 11 33  1  0  0  0  0
M  CHG  1   1   1
M  END
