45

C         -0.03247        0.67768       -0.54051
C          0.55645        0.05772       -1.80002
C          1.04741       -1.39024       -1.73795
C          0.03019       -2.39307       -1.23373
O         -1.18033       -2.29819       -1.28791
O          0.69274       -3.45826       -0.67813
C          2.09228       -3.27649       -0.88014
C          2.28070       -1.76508       -0.90478
C          2.31841       -1.15522        0.50767
C          3.36940       -1.74053        1.38659
C          4.74021       -1.60389        1.33336
N          5.28164       -2.38345        2.33623
C          4.29330       -2.94208        3.04380
N          3.12748       -2.58754        2.47937
C          1.83496       -3.05205        2.98802
C          6.70506       -2.57421        2.61798
C          7.09809       -1.68352        3.76423
C          7.54229       -0.37367        3.52650
C          7.90052        0.45623        4.58985
C          7.80923       -0.00845        5.89977
C          7.36321       -1.30401        6.15005
C          7.01020       -2.13944        5.08923
H         -0.68058       -0.01373        0.00352
H         -0.63438        1.55281       -0.80989
H          0.74478        1.03753        0.13656
H         -0.23044        0.09800       -2.56586
H          1.36708        0.69877       -2.16666
H          1.25198       -1.68779       -2.77804
H          2.36965       -3.73821       -1.83582
H          2.64611       -3.78985       -0.09103
H          3.20803       -1.50563       -1.42935
H          2.54592       -0.08639        0.43149
H          1.34651       -1.24366        0.99833
H          5.40226       -1.05638        0.68344
H          4.40903       -3.58413        3.90951
H          1.57962       -3.99065        2.48991
H          1.91430       -3.22116        4.06621
H          1.05580       -2.30833        2.81559
H          6.87892       -3.62931        2.85819
H          7.29074       -2.34526        1.72037
H          7.62852        0.01227        2.51294
H          8.25878        1.46596        4.39967
H          8.09426        0.63831        6.72708
H          7.30198       -1.66344        7.17530
H          6.68348       -3.15197        5.31452
