19

C          1.07725        0.08527        0.05413
C          0.30123        0.65944       -1.11536
N          0.79257        0.13270       -2.39114
C          1.51984        0.83487       -3.33964
C          1.76771       -0.03076       -4.36741
N          1.18473       -1.23850       -4.02190
C          0.59229       -1.12168       -2.82430
C          1.20682       -2.46381       -4.80985
H          0.96562       -1.00278        0.10012
H          0.71768        0.50698        0.99734
H          2.14504        0.30624       -0.04117
H         -0.76157        0.40754       -1.03280
H          0.38652        1.75151       -1.12555
H          1.76899        1.86647       -3.15827
H          2.28760        0.05667       -5.30616
H          0.05406       -1.90197       -2.29824
H          1.87580       -3.18036       -4.32604
H          0.19528       -2.87570       -4.85856
H          1.56163       -2.25602       -5.82271
