21

C          1.22991        0.11164       -0.27408
C          0.05395        1.07183       -0.27364
S          1.32002       -0.90147       -1.78223
C          1.35709        0.28538       -3.04451
N          2.29305        1.20834       -2.95796
C          2.52679        2.30713       -3.88914
N          0.50486        0.24028       -4.05415
C         -0.52329       -0.79129       -4.25339
H          1.13902       -0.57244        0.57598
H          2.16798        0.66026       -0.14631
H          0.14216        1.82416       -1.06375
H         -0.89793        0.54532       -0.39550
H          0.01737        1.60815        0.68090
H          2.92439        1.09668       -2.17253
H          1.66326        2.97748       -3.88592
H          3.41297        2.86017       -3.56787
H          2.69537        1.91081       -4.89370
H          0.57260        0.94959       -4.76810
H         -1.07244       -0.55887       -5.17023
H         -0.04879       -1.76969       -4.36883
H         -1.22285       -0.79127       -3.41375
