 xtb: 6.7.1 (edcfbbe)
          12202406463D

 23 23  0     0  0            999 V2000
    1.4965   -0.2692    0.7994 N   0  0  0  0  0  0  0  0  0  0  0  0
    2.5741   -0.0560    0.4871 C   0  0  0  0  0  0  0  0  0  0  0  0
    3.9387    0.2838    0.1625 C   0  0  0  0  0  0  0  0  0  0  0  0
    4.0903    1.7882   -0.1084 C   0  0  0  0  0  0  0  0  0  0  0  0
    3.4180    2.6686    0.9538 C   0  0  0  0  0  0  0  0  0  0  0  0
    3.9550    2.4558    2.2807 N   0  0  0  0  0  0  0  0  0  0  0  0
    3.4585    1.5550    3.1850 C   0  0  0  0  0  0  0  0  0  0  0  0
    4.2276    1.6322    4.3004 C   0  0  0  0  0  0  0  0  0  0  0  0
    5.1794    2.5807    4.0535 N   0  0  0  0  0  0  0  0  0  0  0  0
    5.0058    3.0767    2.8237 C   0  0  0  0  0  0  0  0  0  0  0  0
    5.8207    4.1387    2.2044 C   0  0  0  0  0  0  0  0  0  0  0  0
    4.5740   -0.0358    0.9948 H   0  0  0  0  0  0  0  0  0  0  0  0
    4.2388   -0.2811   -0.7230 H   0  0  0  0  0  0  0  0  0  0  0  0
    5.1524    2.0255   -0.1859 H   0  0  0  0  0  0  0  0  0  0  0  0
    3.6229    2.0308   -1.0635 H   0  0  0  0  0  0  0  0  0  0  0  0
    3.5447    3.7197    0.6868 H   0  0  0  0  0  0  0  0  0  0  0  0
    2.3498    2.4419    0.9884 H   0  0  0  0  0  0  0  0  0  0  0  0
    2.6056    0.9421    2.9707 H   0  0  0  0  0  0  0  0  0  0  0  0
    4.1656    1.0974    5.2254 H   0  0  0  0  0  0  0  0  0  0  0  0
    5.8961    2.8701    4.7047 H   0  0  0  0  0  0  0  0  0  0  0  0
    5.2041    5.0066    1.9679 H   0  0  0  0  0  0  0  0  0  0  0  0
    6.6103    4.4544    2.8804 H   0  0  0  0  0  0  0  0  0  0  0  0
    6.2769    3.7970    1.2763 H   0  0  0  0  0  0  0  0  0  0  0  0
  1  2  3  0  0  0  0
  2  3  1  0  0  0  0
  3  4  1  0  0  0  0
  4  5  1  0  0  0  0
  5  6  1  0  0  0  0
  6  7  4  0  0  0  0
  7  8  2  0  0  0  0
  8  9  4  0  0  0  0
  6 10  4  0  0  0  0
  9 10  4  0  0  0  0
 10 11  1  0  0  0  0
  3 12  1  0  0  0  0
  3 13  1  0  0  0  0
  4 14  1  0  0  0  0
  4 15  1  0  0  0  0
  5 16  1  0  0  0  0
  5 17  1  0  0  0  0
  7 18  1  0  0  0  0
  8 19  1  0  0  0  0
  9 20  1  0  0  0  0
 11 21  1  0  0  0  0
 11 22  1  0  0  0  0
 11 23  1  0  0  0  0
M  CHG  1   1   1
M  END
