33

C          1.29059        0.10491       -0.40042
C          0.97966       -0.35290        1.01603
C          1.27198        0.70528        2.08509
C          0.49870        2.01799        1.94826
C         -1.03338        1.95487        1.93909
N         -1.71957        1.64032        3.28283
C         -1.11331        2.43340        4.43382
C         -1.73234        0.13523        3.62269
C         -3.12622       -0.33999        3.26904
C         -3.99065        0.82431        3.68746
C         -3.23014        2.02019        3.15178
H          0.62186        0.91110       -0.71607
H          1.15745       -0.72675       -1.09999
H          2.32368        0.45592       -0.48367
H         -0.06457       -0.67665        1.06212
H          1.58749       -1.23884        1.23643
H          1.10431        0.27730        3.07894
H          2.34366        0.94168        2.04807
H          0.84744        2.71261        2.72052
H          0.80489        2.48810        1.00450
H         -1.39615        2.95015        1.65129
H         -1.41202        1.23720        1.20350
H         -0.11371        2.04244        4.64074
H         -1.07459        3.48725        4.14374
H         -1.74832        2.30531        5.31617
H         -1.54613        0.02913        4.69768
H         -0.96163       -0.39095        3.06654
H         -3.20833       -0.51599        2.18966
H         -3.38991       -1.26650        3.78640
H         -5.00222        0.76278        3.27618
H         -4.06855        0.87555        4.77965
H         -3.45264        2.17032        2.08932
H         -3.42515        2.94587        3.70199
