32

C          1.57446        0.14113       -0.38435
C          0.56560       -0.36105       -1.40606
C          0.76163       -1.83109       -1.76286
N          0.47207       -2.79073       -0.68357
C         -0.26886       -2.55507        0.40899
N         -0.26448       -3.65472        1.18627
C          0.40519       -4.67923        0.52140
C          0.87377       -4.12661       -0.67889
C          1.58647       -4.87696       -1.61182
C          1.80637       -6.22162       -1.28440
C          1.33870       -6.77600       -0.07781
C          0.62795       -6.01264        0.85886
C         -0.91334       -3.73266        2.50772
C         -0.04651       -3.16624        3.63095
C          0.05865       -1.71517        3.47649
N          0.09569       -0.58132        3.23800
H          1.50905       -0.41126        0.55652
H          1.39253        1.19855       -0.16662
H          2.59629        0.04602       -0.76491
H         -0.45183       -0.18546       -1.04142
H          0.67614        0.23578       -2.31942
H          0.10280       -2.09232       -2.59929
H          1.79615       -1.98974       -2.09004
H         -0.77257       -1.62660        0.65084
H          1.94381       -4.44991       -2.54052
H          2.35214       -6.85791       -1.98268
H          1.53307       -7.82948        0.12910
H          0.26620       -6.44458        1.78320
H         -1.87222       -3.20383        2.43806
H         -1.14511       -4.78229        2.71795
H         -0.50036       -3.40248        4.59913
H          0.94949       -3.62108        3.60754
