 xtb: 6.7.1 (edcfbbe)
          12202406463D

 34 35  0     0  0            999 V2000
    0.6160   -0.1195   -0.0293 C   0  0  0  0  0  0  0  0  0  0  0  0
   -0.2737    0.5004    0.7203 C   0  0  0  0  0  0  0  0  0  0  0  0
   -1.6985    0.0412    0.8804 C   0  0  0  0  0  0  0  0  0  0  0  0
   -2.0114   -0.1609    2.2817 N   0  0  0  0  0  0  0  0  0  0  0  0
   -2.6991    0.6524    3.0823 C   0  0  0  0  0  0  0  0  0  0  0  0
   -3.3294    1.9324    2.5995 C   0  0  0  0  0  0  0  0  0  0  0  0
   -2.4123    2.7418    1.9342 O   0  0  0  0  0  0  0  0  0  0  0  0
   -2.7348    0.1496    4.3295 N   0  0  0  0  0  0  0  0  0  0  0  0
   -2.0210   -1.0362    4.3361 C   0  0  0  0  0  0  0  0  0  0  0  0
   -1.5568   -1.2308    3.0248 C   0  0  0  0  0  0  0  0  0  0  0  0
   -0.7948   -2.3413    2.6838 C   0  0  0  0  0  0  0  0  0  0  0  0
   -0.5218   -3.2433    3.6912 C   0  0  0  0  0  0  0  0  0  0  0  0
   -0.9866   -3.0518    4.9952 C   0  0  0  0  0  0  0  0  0  0  0  0
   -1.7401   -1.9495    5.3443 C   0  0  0  0  0  0  0  0  0  0  0  0
   -3.2771    0.7683    5.5185 C   0  0  0  0  0  0  0  0  0  0  0  0
   -2.2013    1.6165    6.2287 C   0  0  0  0  0  0  0  0  0  0  0  0
   -1.6200    2.5256    5.2765 C   0  0  0  0  0  0  0  0  0  0  0  0
   -1.1991    3.1770    4.4367 N   0  0  0  0  0  0  0  0  0  0  0  0
    0.3800   -1.0144   -0.5816 H   0  0  0  0  0  0  0  0  0  0  0  0
    1.6165    0.2583   -0.1419 H   0  0  0  0  0  0  0  0  0  0  0  0
   -0.0297    1.4090    1.2512 H   0  0  0  0  0  0  0  0  0  0  0  0
   -2.3664    0.8048    0.4781 H   0  0  0  0  0  0  0  0  0  0  0  0
   -1.8605   -0.9023    0.3540 H   0  0  0  0  0  0  0  0  0  0  0  0
   -4.1078    1.6793    1.8670 H   0  0  0  0  0  0  0  0  0  0  0  0
   -3.8091    2.4571    3.4323 H   0  0  0  0  0  0  0  0  0  0  0  0
   -1.8451    3.2127    2.5706 H   0  0  0  0  0  0  0  0  0  0  0  0
   -0.4289   -2.4883    1.6820 H   0  0  0  0  0  0  0  0  0  0  0  0
    0.0660   -4.1196    3.4707 H   0  0  0  0  0  0  0  0  0  0  0  0
   -0.7472   -3.7849    5.7487 H   0  0  0  0  0  0  0  0  0  0  0  0
   -2.0915   -1.8164    6.3546 H   0  0  0  0  0  0  0  0  0  0  0  0
   -4.1330    1.3893    5.2480 H   0  0  0  0  0  0  0  0  0  0  0  0
   -3.6242   -0.0217    6.1874 H   0  0  0  0  0  0  0  0  0  0  0  0
   -2.6501    2.1793    7.0498 H   0  0  0  0  0  0  0  0  0  0  0  0
   -1.4092    0.9803    6.6331 H   0  0  0  0  0  0  0  0  0  0  0  0
  1  2  2  0  0  0  0
  2  3  1  0  0  0  0
  3  4  1  0  0  0  0
  4  5  4  0  0  0  0
  5  6  1  0  0  0  0
  6  7  1  0  0  0  0
  5  8  4  0  0  0  0
  8  9  1  0  0  0  0
  4 10  1  0  0  0  0
  9 10  4  0  0  0  0
 10 11  4  0  0  0  0
 11 12  4  0  0  0  0
 12 13  4  0  0  0  0
  9 14  4  0  0  0  0
 13 14  4  0  0  0  0
  8 15  1  0  0  0  0
 15 16  1  0  0  0  0
 16 17  1  0  0  0  0
 17 18  3  0  0  0  0
  1 19  1  0  0  0  0
  1 20  1  0  0  0  0
  2 21  1  0  0  0  0
  3 22  1  0  0  0  0
  3 23  1  0  0  0  0
  6 24  1  0  0  0  0
  6 25  1  0  0  0  0
  7 26  1  0  0  0  0
 11 27  1  0  0  0  0
 12 28  1  0  0  0  0
 13 29  1  0  0  0  0
 14 30  1  0  0  0  0
 15 31  1  0  0  0  0
 15 32  1  0  0  0  0
 16 33  1  0  0  0  0
 16 34  1  0  0  0  0
M  CHG  1   1   1
M  END
