34

C          0.79441       -0.02277        0.21555
C         -0.24589        0.58209        0.80806
C         -1.63956        0.03817        0.87142
N         -1.96246       -0.21636        2.28150
C         -2.68337        0.61420        3.07048
C         -3.44595        1.83908        2.57515
O         -2.60214        2.76645        1.91096
N         -2.56795        0.14665        4.34655
C         -1.97906       -1.12368        4.31407
C         -1.59112       -1.34900        2.99145
C         -0.95502       -2.52204        2.59092
C         -0.74058       -3.48074        3.58803
C         -1.13369       -3.25868        4.92016
C         -1.75643       -2.06697        5.31707
C         -3.01695        0.83052        5.58379
C         -1.95886        1.77590        6.16819
C         -1.81818        2.93501        5.19502
N         -1.70149        3.89659        4.38770
H          0.70558       -0.98489       -0.27933
H          1.77428        0.44893        0.20256
H         -0.08802        1.55673        1.26529
H         -2.34775        0.74234        0.42949
H         -1.73970       -0.89849        0.31195
H         -4.18166        1.44830        1.86707
H         -3.96673        2.30850        3.40899
H         -2.24664        3.39297        2.58018
H         -0.64941       -2.68830        1.56553
H         -0.25704       -4.42287        3.32638
H         -0.94772       -4.03739        5.66120
H         -2.05607       -1.90549        6.34456
H         -3.95194        1.35842        5.36727
H         -3.26758        0.06624        6.32726
H         -2.28158        2.15576        7.14233
H         -0.99572        1.26906        6.28168
