 xtb: 6.7.1 (edcfbbe)
          12202406463D

 29 28  0     0  0            999 V2000
    0.8134    0.1216    0.0382 C   0  0  0  0  0  0  0  0  0  0  0  0
    0.4505   -0.4555   -1.3228 C   0  0  0  0  0  0  0  0  0  0  0  0
    0.8944   -1.8611   -1.5588 N   0  0  0  0  0  0  0  0  0  0  0  0
    0.4476   -2.7577   -0.4402 C   0  0  0  0  0  0  0  0  0  0  0  0
   -1.0538   -2.8691   -0.2220 C   0  0  0  0  0  0  0  0  0  0  0  0
    0.2691   -2.3732   -2.8211 C   0  0  0  0  0  0  0  0  0  0  0  0
    0.7405   -1.7631   -4.1309 C   0  0  0  0  0  0  0  0  0  0  0  0
    2.3942   -1.9784   -1.6163 C   0  0  0  0  0  0  0  0  0  0  0  0
    3.1778   -0.8167   -2.2133 C   0  0  0  0  0  0  0  0  0  0  0  0
    0.2253   -0.3132    0.8412 H   0  0  0  0  0  0  0  0  0  0  0  0
    0.5943    1.1865    0.0192 H   0  0  0  0  0  0  0  0  0  0  0  0
    1.8672    0.0072    0.2731 H   0  0  0  0  0  0  0  0  0  0  0  0
   -0.6332   -0.4246   -1.4446 H   0  0  0  0  0  0  0  0  0  0  0  0
    0.8895    0.1599   -2.1063 H   0  0  0  0  0  0  0  0  0  0  0  0
    0.8519   -3.7517   -0.6445 H   0  0  0  0  0  0  0  0  0  0  0  0
    0.9085   -2.3909    0.4771 H   0  0  0  0  0  0  0  0  0  0  0  0
   -1.5651   -3.3519   -1.0493 H   0  0  0  0  0  0  0  0  0  0  0  0
   -1.2097   -3.4897    0.6574 H   0  0  0  0  0  0  0  0  0  0  0  0
   -1.5189   -1.9076   -0.0262 H   0  0  0  0  0  0  0  0  0  0  0  0
    0.4487   -3.4501   -2.8545 H   0  0  0  0  0  0  0  0  0  0  0  0
   -0.8055   -2.2098   -2.7350 H   0  0  0  0  0  0  0  0  0  0  0  0
    1.7698   -2.0190   -4.3604 H   0  0  0  0  0  0  0  0  0  0  0  0
    0.1222   -2.1799   -4.9229 H   0  0  0  0  0  0  0  0  0  0  0  0
    0.6144   -0.6849   -4.1582 H   0  0  0  0  0  0  0  0  0  0  0  0
    2.7522   -2.1239   -0.5956 H   0  0  0  0  0  0  0  0  0  0  0  0
    2.6156   -2.8895   -2.1751 H   0  0  0  0  0  0  0  0  0  0  0  0
    3.1263    0.0766   -1.5989 H   0  0  0  0  0  0  0  0  0  0  0  0
    4.2212   -1.1233   -2.2474 H   0  0  0  0  0  0  0  0  0  0  0  0
    2.8802   -0.5654   -3.2244 H   0  0  0  0  0  0  0  0  0  0  0  0
  1  2  1  0  0  0  0
  2  3  1  0  0  0  0
  3  4  1  0  0  0  0
  4  5  1  0  0  0  0
  3  6  1  0  0  0  0
  6  7  1  0  0  0  0
  3  8  1  0  0  0  0
  8  9  1  0  0  0  0
  1 10  1  0  0  0  0
  1 11  1  0  0  0  0
  1 12  1  0  0  0  0
  2 13  1  0  0  0  0
  2 14  1  0  0  0  0
  4 15  1  0  0  0  0
  4 16  1  0  0  0  0
  5 17  1  0  0  0  0
  5 18  1  0  0  0  0
  5 19  1  0  0  0  0
  6 20  1  0  0  0  0
  6 21  1  0  0  0  0
  7 22  1  0  0  0  0
  7 23  1  0  0  0  0
  7 24  1  0  0  0  0
  8 25  1  0  0  0  0
  8 26  1  0  0  0  0
  9 27  1  0  0  0  0
  9 28  1  0  0  0  0
  9 29  1  0  0  0  0
M  CHG  1   1   1
M  END
