 xtb: 6.7.1 (edcfbbe)
          12202406463D

 33 35  0     0  0            999 V2000
    2.2534    2.1433    1.3644 O   0  0  0  0  0  0  0  0  0  0  0  0
    2.8569    1.2908    0.7336 C   0  0  0  0  0  0  0  0  0  0  0  0
    2.9415    1.2862   -0.6984 C   0  0  0  0  0  0  0  0  0  0  0  0
    2.4536    2.2045   -1.6155 C   0  0  0  0  0  0  0  0  0  0  0  0
    2.8300    1.7339   -2.8802 C   0  0  0  0  0  0  0  0  0  0  0  0
    3.5160    0.5680   -2.6584 C   0  0  0  0  0  0  0  0  0  0  0  0
    3.5896    0.2891   -1.3603 O   0  0  0  0  0  0  0  0  0  0  0  0
    3.6331    0.1779    1.4520 C   0  0  0  0  0  0  0  0  0  0  0  0
    2.9216   -0.4171    2.5626 N   0  0  0  0  0  0  0  0  0  0  0  0
    2.5518    0.1933    3.7079 C   0  0  0  0  0  0  0  0  0  0  0  0
    2.7029    1.4948    3.9526 N   0  0  0  0  0  0  0  0  0  0  0  0
    2.0676   -0.7098    4.5790 N   0  0  0  0  0  0  0  0  0  0  0  0
    2.1092   -1.9614    3.9768 C   0  0  0  0  0  0  0  0  0  0  0  0
    2.6464   -1.7757    2.6935 C   0  0  0  0  0  0  0  0  0  0  0  0
    2.8131   -2.8409    1.8249 C   0  0  0  0  0  0  0  0  0  0  0  0
    2.4322   -4.0914    2.2785 C   0  0  0  0  0  0  0  0  0  0  0  0
    1.9043   -4.2756    3.5532 C   0  0  0  0  0  0  0  0  0  0  0  0
    1.7324   -3.2157    4.4254 C   0  0  0  0  0  0  0  0  0  0  0  0
    1.5885   -0.4043    5.9038 C   0  0  0  0  0  0  0  0  0  0  0  0
    1.9037    3.0925   -1.3794 H   0  0  0  0  0  0  0  0  0  0  0  0
    2.6266    2.1880   -3.8275 H   0  0  0  0  0  0  0  0  0  0  0  0
    3.9792   -0.1213   -3.3387 H   0  0  0  0  0  0  0  0  0  0  0  0
    3.8856   -0.6153    0.7503 H   0  0  0  0  0  0  0  0  0  0  0  0
    4.5658    0.6287    1.8178 H   0  0  0  0  0  0  0  0  0  0  0  0
    2.7019    2.1049    3.1305 H   0  0  0  0  0  0  0  0  0  0  0  0
    2.3089    1.8751    4.7977 H   0  0  0  0  0  0  0  0  0  0  0  0
    3.2169   -2.7154    0.8336 H   0  0  0  0  0  0  0  0  0  0  0  0
    2.5473   -4.9436    1.6283 H   0  0  0  0  0  0  0  0  0  0  0  0
    1.6213   -5.2670    3.8680 H   0  0  0  0  0  0  0  0  0  0  0  0
    1.3203   -3.3712    5.4087 H   0  0  0  0  0  0  0  0  0  0  0  0
    2.3857    0.0266    6.5117 H   0  0  0  0  0  0  0  0  0  0  0  0
    0.7477    0.2906    5.8582 H   0  0  0  0  0  0  0  0  0  0  0  0
    1.2519   -1.3233    6.3752 H   0  0  0  0  0  0  0  0  0  0  0  0
  1  2  2  0  0  0  0
  2  3  1  0  0  0  0
  3  4  4  0  0  0  0
  4  5  4  0  0  0  0
  5  6  2  0  0  0  0
  3  7  1  0  0  0  0
  6  7  1  0  0  0  0
  2  8  1  0  0  0  0
  8  9  1  0  0  0  0
  9 10  4  0  0  0  0
 10 11  4  0  0  0  0
 10 12  4  0  0  0  0
 12 13  1  0  0  0  0
  9 14  1  0  0  0  0
 13 14  4  0  0  0  0
 14 15  4  0  0  0  0
 15 16  4  0  0  0  0
 16 17  4  0  0  0  0
 13 18  4  0  0  0  0
 17 18  4  0  0  0  0
 12 19  1  0  0  0  0
  4 20  1  0  0  0  0
  5 21  1  0  0  0  0
  6 22  1  0  0  0  0
  8 23  1  0  0  0  0
  8 24  1  0  0  0  0
 11 25  1  0  0  0  0
 11 26  1  0  0  0  0
 15 27  1  0  0  0  0
 16 28  1  0  0  0  0
 17 29  1  0  0  0  0
 18 30  1  0  0  0  0
 19 31  1  0  0  0  0
 19 32  1  0  0  0  0
 19 33  1  0  0  0  0
M  CHG  1   1   1
M  END
