 xtb: 6.7.1 (edcfbbe)
          12202406463D

 31 32  0     0  0            999 V2000
    0.9758    0.0648   -0.1887 C   0  0  0  0  0  0  0  0  0  0  0  0
    0.6751   -1.0093   -1.0956 N   0  0  0  0  0  0  0  0  0  0  0  0
    0.5817   -0.8969   -2.4506 C   0  0  0  0  0  0  0  0  0  0  0  0
    0.3176   -2.1366   -2.9442 C   0  0  0  0  0  0  0  0  0  0  0  0
    0.2392   -2.9868   -1.8810 N   0  0  0  0  0  0  0  0  0  0  0  0
    0.4761   -2.2840   -0.7728 C   0  0  0  0  0  0  0  0  0  0  0  0
    0.1885   -4.4178   -1.9231 C   0  0  0  0  0  0  0  0  0  0  0  0
    1.5629   -4.9482   -1.4089 C   0  0  0  0  0  0  0  0  0  0  0  0
    2.2386   -4.1866   -0.7551 O   0  0  0  0  0  0  0  0  0  0  0  0
    2.0000   -6.2785   -1.8270 C   0  0  0  0  0  0  0  0  0  0  0  0
    3.3927   -6.4025   -1.9632 C   0  0  0  0  0  0  0  0  0  0  0  0
    3.9672   -7.5670   -2.4198 C   0  0  0  0  0  0  0  0  0  0  0  0
    3.1537   -8.6460   -2.7308 C   0  0  0  0  0  0  0  0  0  0  0  0
    1.7851   -8.5516   -2.5514 C   0  0  0  0  0  0  0  0  0  0  0  0
    1.1770   -7.3874   -2.0968 C   0  0  0  0  0  0  0  0  0  0  0  0
   -0.3013   -7.4156   -1.8513 C   0  0  0  0  0  0  0  0  0  0  0  0
    0.7583   -0.2401    0.8325 H   0  0  0  0  0  0  0  0  0  0  0  0
    0.3786    0.9410   -0.4385 H   0  0  0  0  0  0  0  0  0  0  0  0
    2.0319    0.3310   -0.2587 H   0  0  0  0  0  0  0  0  0  0  0  0
    0.7077    0.0356   -2.9617 H   0  0  0  0  0  0  0  0  0  0  0  0
    0.1769   -2.4615   -3.9546 H   0  0  0  0  0  0  0  0  0  0  0  0
    0.4856   -2.6791    0.2237 H   0  0  0  0  0  0  0  0  0  0  0  0
   -0.5983   -4.7857   -1.2610 H   0  0  0  0  0  0  0  0  0  0  0  0
   -0.0007   -4.7519   -2.9421 H   0  0  0  0  0  0  0  0  0  0  0  0
    4.0047   -5.5474   -1.7190 H   0  0  0  0  0  0  0  0  0  0  0  0
    5.0375   -7.6366   -2.5300 H   0  0  0  0  0  0  0  0  0  0  0  0
    3.5851   -9.5657   -3.0938 H   0  0  0  0  0  0  0  0  0  0  0  0
    1.1666   -9.4113   -2.7617 H   0  0  0  0  0  0  0  0  0  0  0  0
   -0.6441   -8.4467   -1.8234 H   0  0  0  0  0  0  0  0  0  0  0  0
   -0.5565   -6.9556   -0.8995 H   0  0  0  0  0  0  0  0  0  0  0  0
   -0.8499   -6.9144   -2.6477 H   0  0  0  0  0  0  0  0  0  0  0  0
  1  2  1  0  0  0  0
  2  3  4  0  0  0  0
  3  4  2  0  0  0  0
  4  5  4  0  0  0  0
  2  6  4  0  0  0  0
  5  6  4  0  0  0  0
  5  7  1  0  0  0  0
  7  8  1  0  0  0  0
  8  9  2  0  0  0  0
  8 10  1  0  0  0  0
 10 11  4  0  0  0  0
 11 12  4  0  0  0  0
 12 13  4  0  0  0  0
 13 14  4  0  0  0  0
 10 15  4  0  0  0  0
 14 15  4  0  0  0  0
 15 16  1  0  0  0  0
  1 17  1  0  0  0  0
  1 18  1  0  0  0  0
  1 19  1  0  0  0  0
  3 20  1  0  0  0  0
  4 21  1  0  0  0  0
  6 22  1  0  0  0  0
  7 23  1  0  0  0  0
  7 24  1  0  0  0  0
 11 25  1  0  0  0  0
 12 26  1  0  0  0  0
 13 27  1  0  0  0  0
 14 28  1  0  0  0  0
 16 29  1  0  0  0  0
 16 30  1  0  0  0  0
 16 31  1  0  0  0  0
M  CHG  1   1   1
M  END
