31

C          0.94113        0.19942       -0.19154
N          0.60718       -0.88313       -1.10778
C          0.09812       -0.75214       -2.38613
C         -0.03314       -2.01633       -2.88841
N          0.40414       -2.88970       -1.90419
C          0.78460       -2.18414       -0.82412
C          0.41907       -4.36874       -2.00135
C          1.67865       -4.99384       -1.41649
O          2.39064       -4.38716       -0.61218
C          2.08906       -6.36352       -1.84987
C          3.47759       -6.56548       -1.96562
C          3.99303       -7.79998       -2.35705
C          3.12778       -8.84874       -2.63791
C          1.75025       -8.66664       -2.51539
C          1.20660       -7.43323       -2.10552
C         -0.28472       -7.36527       -1.93958
H          0.55150       -0.03867        0.80193
H          0.49782        1.13689       -0.53739
H          2.02875        0.30046       -0.14844
H         -0.10883        0.23041       -2.77426
H         -0.38802       -2.40809       -3.82629
H          1.15257       -2.57422        0.11854
H         -0.45495       -4.71387       -1.44345
H          0.33243       -4.63802       -3.05872
H          4.17603       -5.75903       -1.74371
H          5.06841       -7.94499       -2.43547
H          3.52439       -9.81692       -2.93768
H          1.09996       -9.51655       -2.72367
H         -0.73874       -8.36227       -1.96411
H         -0.54426       -6.93048       -0.96986
H         -0.73384       -6.78434       -2.75011
