 xtb: 6.7.1 (edcfbbe)
          12202406463D

 35 37  0     0  0            999 V2000
    0.8332   -0.0036   -0.0001 N   0  0  0  0  0  0  0  0  0  0  0  0
    0.3091   -0.7341   -1.0173 C   0  0  0  0  0  0  0  0  0  0  0  0
    0.5226   -2.0373   -1.3856 C   0  0  0  0  0  0  0  0  0  0  0  0
   -0.3330   -2.3154   -2.4212 N   0  0  0  0  0  0  0  0  0  0  0  0
   -1.0576   -1.2270   -2.6954 C   0  0  0  0  0  0  0  0  0  0  0  0
   -0.6818   -0.2490   -1.8390 N   0  0  0  0  0  0  0  0  0  0  0  0
   -1.2775    1.0554   -1.7035 C   0  0  0  0  0  0  0  0  0  0  0  0
   -2.1044   -1.1259   -3.7036 C   0  0  0  0  0  0  0  0  0  0  0  0
   -2.1393   -0.0471   -4.5887 C   0  0  0  0  0  0  0  0  0  0  0  0
   -3.1370    0.0317   -5.5428 C   0  0  0  0  0  0  0  0  0  0  0  0
   -4.1061   -0.9553   -5.6209 C   0  0  0  0  0  0  0  0  0  0  0  0
   -4.0746   -2.0295   -4.7451 C   0  0  0  0  0  0  0  0  0  0  0  0
   -3.0797   -2.1212   -3.7909 C   0  0  0  0  0  0  0  0  0  0  0  0
   -0.3749   -3.5605   -3.1025 C   0  0  0  0  0  0  0  0  0  0  0  0
   -0.3463   -3.5970   -4.4907 C   0  0  0  0  0  0  0  0  0  0  0  0
   -0.3782   -4.8203   -5.1355 C   0  0  0  0  0  0  0  0  0  0  0  0
   -0.4323   -5.9953   -4.4027 C   0  0  0  0  0  0  0  0  0  0  0  0
   -0.4522   -5.9511   -3.0184 C   0  0  0  0  0  0  0  0  0  0  0  0
   -0.4222   -4.7337   -2.3611 C   0  0  0  0  0  0  0  0  0  0  0  0
    0.8512    0.9987   -0.0907 H   0  0  0  0  0  0  0  0  0  0  0  0
    1.6275   -0.4034    0.4714 H   0  0  0  0  0  0  0  0  0  0  0  0
    1.2174   -2.7574   -1.0107 H   0  0  0  0  0  0  0  0  0  0  0  0
   -0.6201    1.8286   -2.1059 H   0  0  0  0  0  0  0  0  0  0  0  0
   -2.2225    1.0786   -2.2419 H   0  0  0  0  0  0  0  0  0  0  0  0
   -1.4650    1.2574   -0.6487 H   0  0  0  0  0  0  0  0  0  0  0  0
   -1.3686    0.7081   -4.5519 H   0  0  0  0  0  0  0  0  0  0  0  0
   -3.1548    0.8645   -6.2281 H   0  0  0  0  0  0  0  0  0  0  0  0
   -4.8839   -0.8889   -6.3650 H   0  0  0  0  0  0  0  0  0  0  0  0
   -4.8290   -2.7980   -4.8039 H   0  0  0  0  0  0  0  0  0  0  0  0
   -3.0641   -2.9517   -3.1019 H   0  0  0  0  0  0  0  0  0  0  0  0
   -0.2895   -2.6800   -5.0564 H   0  0  0  0  0  0  0  0  0  0  0  0
   -0.3542   -4.8540   -6.2131 H   0  0  0  0  0  0  0  0  0  0  0  0
   -0.4554   -6.9461   -4.9111 H   0  0  0  0  0  0  0  0  0  0  0  0
   -0.4928   -6.8644   -2.4463 H   0  0  0  0  0  0  0  0  0  0  0  0
   -0.4510   -4.6911   -1.2830 H   0  0  0  0  0  0  0  0  0  0  0  0
  1  2  1  0  0  0  0
  2  3  4  0  0  0  0
  3  4  1  0  0  0  0
  4  5  4  0  0  0  0
  2  6  1  0  0  0  0
  5  6  4  0  0  0  0
  6  7  1  0  0  0  0
  5  8  1  0  0  0  0
  8  9  4  0  0  0  0
  9 10  4  0  0  0  0
 10 11  4  0  0  0  0
 11 12  4  0  0  0  0
  8 13  4  0  0  0  0
 12 13  4  0  0  0  0
  4 14  1  0  0  0  0
 14 15  4  0  0  0  0
 15 16  4  0  0  0  0
 16 17  4  0  0  0  0
 17 18  4  0  0  0  0
 14 19  4  0  0  0  0
 18 19  4  0  0  0  0
  1 20  1  0  0  0  0
  1 21  1  0  0  0  0
  3 22  1  0  0  0  0
  7 23  1  0  0  0  0
  7 24  1  0  0  0  0
  7 25  1  0  0  0  0
  9 26  1  0  0  0  0
 10 27  1  0  0  0  0
 11 28  1  0  0  0  0
 12 29  1  0  0  0  0
 13 30  1  0  0  0  0
 15 31  1  0  0  0  0
 16 32  1  0  0  0  0
 17 33  1  0  0  0  0
 18 34  1  0  0  0  0
 19 35  1  0  0  0  0
M  CHG  1   1   1
M  END
