 xtb: 6.7.1 (edcfbbe)
          12202406463D

 47 48  0     0  0            999 V2000
    1.3791   -0.9485   -0.3093 C   0  0  0  0  0  0  0  0  0  0  0  0
    0.6347   -0.1599   -1.1773 C   0  0  0  0  0  0  0  0  0  0  0  0
   -0.7085   -0.4375   -1.3618 C   0  0  0  0  0  0  0  0  0  0  0  0
   -1.3012   -1.4912   -0.6849 C   0  0  0  0  0  0  0  0  0  0  0  0
   -0.5499   -2.2827    0.1694 C   0  0  0  0  0  0  0  0  0  0  0  0
    0.7957   -2.0195    0.3588 C   0  0  0  0  0  0  0  0  0  0  0  0
    2.7615   -0.6735   -0.1279 N   0  0  0  0  0  0  0  0  0  0  0  0
    3.3186   -0.3138    1.0547 N   0  0  0  0  0  0  0  0  0  0  0  0
    4.6470   -0.1977    0.8882 C   0  0  0  0  0  0  0  0  0  0  0  0
    4.9333   -0.4974   -0.4370 C   0  0  0  0  0  0  0  0  0  0  0  0
    3.7284   -0.7948   -1.0556 C   0  0  0  0  0  0  0  0  0  0  0  0
    3.4668   -1.1982   -2.4534 C   0  0  0  0  0  0  0  0  0  0  0  0
    5.5876    0.1638    1.9697 C   0  0  0  0  0  0  0  0  0  0  0  0
    2.5569   -0.0232    2.2467 C   0  0  0  0  0  0  0  0  0  0  0  0
    2.3963    1.4823    2.4873 C   0  0  0  0  0  0  0  0  0  0  0  0
    1.4987    2.1772    1.4631 C   0  0  0  0  0  0  0  0  0  0  0  0
    0.0141    1.8202    1.5679 C   0  0  0  0  0  0  0  0  0  0  0  0
   -0.6621    2.2488    2.8729 C   0  0  0  0  0  0  0  0  0  0  0  0
   -0.6213    3.7503    3.1623 C   0  0  0  0  0  0  0  0  0  0  0  0
   -1.3077    4.5888    2.0907 C   0  0  0  0  0  0  0  0  0  0  0  0
    1.1013    0.6629   -1.6961 H   0  0  0  0  0  0  0  0  0  0  0  0
   -1.2913    0.1731   -2.0325 H   0  0  0  0  0  0  0  0  0  0  0  0
   -2.3494   -1.7004   -0.8271 H   0  0  0  0  0  0  0  0  0  0  0  0
   -1.0081   -3.1105    0.6868 H   0  0  0  0  0  0  0  0  0  0  0  0
    1.3909   -2.6474    1.0056 H   0  0  0  0  0  0  0  0  0  0  0  0
    5.9010   -0.5051   -0.8933 H   0  0  0  0  0  0  0  0  0  0  0  0
    2.5678   -1.8056   -2.5264 H   0  0  0  0  0  0  0  0  0  0  0  0
    3.3380   -0.3193   -3.0853 H   0  0  0  0  0  0  0  0  0  0  0  0
    4.3152   -1.7580   -2.8384 H   0  0  0  0  0  0  0  0  0  0  0  0
    5.5565    1.2334    2.1739 H   0  0  0  0  0  0  0  0  0  0  0  0
    5.3500   -0.3604    2.8933 H   0  0  0  0  0  0  0  0  0  0  0  0
    6.5999   -0.0904    1.6691 H   0  0  0  0  0  0  0  0  0  0  0  0
    1.5750   -0.4874    2.1541 H   0  0  0  0  0  0  0  0  0  0  0  0
    3.0757   -0.4787    3.0941 H   0  0  0  0  0  0  0  0  0  0  0  0
    1.9789    1.6143    3.4845 H   0  0  0  0  0  0  0  0  0  0  0  0
    3.3787    1.9554    2.4796 H   0  0  0  0  0  0  0  0  0  0  0  0
    1.6075    3.2535    1.5943 H   0  0  0  0  0  0  0  0  0  0  0  0
    1.8512    1.9456    0.4542 H   0  0  0  0  0  0  0  0  0  0  0  0
   -0.5041    2.2931    0.7329 H   0  0  0  0  0  0  0  0  0  0  0  0
   -0.1241    0.7420    1.4528 H   0  0  0  0  0  0  0  0  0  0  0  0
   -1.7072    1.9363    2.8186 H   0  0  0  0  0  0  0  0  0  0  0  0
   -0.2135    1.7155    3.7140 H   0  0  0  0  0  0  0  0  0  0  0  0
   -1.1259    3.9182    4.1157 H   0  0  0  0  0  0  0  0  0  0  0  0
    0.4111    4.0836    3.2833 H   0  0  0  0  0  0  0  0  0  0  0  0
   -2.3192    4.2292    1.9165 H   0  0  0  0  0  0  0  0  0  0  0  0
   -1.3660    5.6262    2.4091 H   0  0  0  0  0  0  0  0  0  0  0  0
   -0.7623    4.5571    1.1505 H   0  0  0  0  0  0  0  0  0  0  0  0
  1  2  4  0  0  0  0
  2  3  4  0  0  0  0
  3  4  4  0  0  0  0
  4  5  4  0  0  0  0
  1  6  4  0  0  0  0
  5  6  4  0  0  0  0
  1  7  1  0  0  0  0
  7  8  1  0  0  0  0
  8  9  4  0  0  0  0
  9 10  4  0  0  0  0
  7 11  4  0  0  0  0
 10 11  4  0  0  0  0
 11 12  1  0  0  0  0
  9 13  1  0  0  0  0
  8 14  1  0  0  0  0
 14 15  1  0  0  0  0
 15 16  1  0  0  0  0
 16 17  1  0  0  0  0
 17 18  1  0  0  0  0
 18 19  1  0  0  0  0
 19 20  1  0  0  0  0
  2 21  1  0  0  0  0
  3 22  1  0  0  0  0
  4 23  1  0  0  0  0
  5 24  1  0  0  0  0
  6 25  1  0  0  0  0
 10 26  1  0  0  0  0
 12 27  1  0  0  0  0
 12 28  1  0  0  0  0
 12 29  1  0  0  0  0
 13 30  1  0  0  0  0
 13 31  1  0  0  0  0
 13 32  1  0  0  0  0
 14 33  1  0  0  0  0
 14 34  1  0  0  0  0
 15 35  1  0  0  0  0
 15 36  1  0  0  0  0
 16 37  1  0  0  0  0
 16 38  1  0  0  0  0
 17 39  1  0  0  0  0
 17 40  1  0  0  0  0
 18 41  1  0  0  0  0
 18 42  1  0  0  0  0
 19 43  1  0  0  0  0
 19 44  1  0  0  0  0
 20 45  1  0  0  0  0
 20 46  1  0  0  0  0
 20 47  1  0  0  0  0
M  CHG  1   1   1
M  END
