30

C          1.13185        0.71560        0.62195
O          0.25167       -0.35366        0.93139
C          0.90005       -1.41034        1.62835
P          0.34138       -2.89071        0.85088
C          0.84041       -2.86728       -0.86184
C          2.33641       -2.83902       -1.10570
C          1.08276       -4.31056        1.60948
C          0.69233       -4.59166        3.04446
C         -1.42948       -3.00073        0.86441
C         -2.12762       -2.58672        2.14441
H          0.55117        1.51493        0.15356
H          1.89605        0.38224       -0.08651
H          1.60075        1.10622        1.52987
H          1.99104       -1.33192        1.57722
H          0.60421       -1.36441        2.68017
H          0.42042       -3.74970       -1.35717
H          0.38886       -1.99395       -1.34539
H          2.81350       -3.73918       -0.70803
H          2.54901       -2.78621       -2.17767
H          2.79802       -1.97436       -0.62136
H          0.85040       -5.19477        1.00542
H          2.17089       -4.18811        1.57381
H         -0.35574       -4.89508        3.10839
H          1.29926       -5.40536        3.45345
H          0.83226       -3.70636        3.67092
H         -1.81602       -2.36814        0.05678
H         -1.71842       -4.02732        0.61372
H         -1.92453       -1.53766        2.37790
H         -3.21071       -2.70697        2.04343
H         -1.79692       -3.18495        2.99525
