27

C          0.85249       -0.18544        1.53537
C          0.69793       -1.05272        0.29978
S          1.36584       -2.73524        0.50474
C          3.06075       -2.39540        0.90818
N          3.85379       -1.93179       -0.08144
C          5.11457       -1.19984        0.13871
C          3.48304       -2.04569       -1.51921
N          3.44355       -2.63810        2.18416
C          2.47187       -3.06877        3.22986
C          4.84980       -2.72402        2.62064
H          0.33866       -0.61921        2.39855
H          0.40928        0.79929        1.35208
H          1.90437       -0.02525        1.79192
H         -0.36585       -1.15175        0.06003
H          1.17340       -0.56678       -0.55517
H          5.95455       -1.89737        0.15467
H          5.27415       -0.48633       -0.67729
H          5.05640       -0.61004        1.05593
H          2.95786       -2.98421       -1.71513
H          2.88283       -1.18318       -1.81598
H          4.39384       -2.06296       -2.12776
H          2.15324       -4.09608        3.03079
H          2.94092       -3.03328        4.21881
H          1.61872       -2.38861        3.26535
H          5.46427       -3.16839        1.83523
H          5.20914       -1.73413        2.90943
H          4.94016       -3.38729        3.48783
