 xtb: 6.7.1 (edcfbbe)
          12202406463D

 27 26  0     0  0            999 V2000
    0.9826    0.1099    0.9196 C   0  0  0  0  0  0  0  0  0  0  0  0
    0.5870   -1.1622    0.2006 C   0  0  0  0  0  0  0  0  0  0  0  0
    1.2702   -2.6665    1.0009 S   0  0  0  0  0  0  0  0  0  0  0  0
    2.9968   -2.3770    1.1498 C   0  0  0  0  0  0  0  0  0  0  0  0
    3.6925   -1.8267    0.1544 N   0  0  0  0  0  0  0  0  0  0  0  0
    4.8607   -0.9924    0.3626 C   0  0  0  0  0  0  0  0  0  0  0  0
    3.3196   -1.9751   -1.2351 C   0  0  0  0  0  0  0  0  0  0  0  0
    3.5606   -2.7679    2.2863 N   0  0  0  0  0  0  0  0  0  0  0  0
    2.7898   -3.0438    3.4800 C   0  0  0  0  0  0  0  0  0  0  0  0
    4.9515   -3.1653    2.3886 C   0  0  0  0  0  0  0  0  0  0  0  0
    0.7058    0.0655    1.9708 H   0  0  0  0  0  0  0  0  0  0  0  0
    0.4563    0.9476    0.4678 H   0  0  0  0  0  0  0  0  0  0  0  0
    2.0512    0.3014    0.8456 H   0  0  0  0  0  0  0  0  0  0  0  0
   -0.4868   -1.3349    0.2835 H   0  0  0  0  0  0  0  0  0  0  0  0
    0.8547   -1.1469   -0.8532 H   0  0  0  0  0  0  0  0  0  0  0  0
    5.7750   -1.4801    0.0213 H   0  0  0  0  0  0  0  0  0  0  0  0
    4.7332   -0.0788   -0.2215 H   0  0  0  0  0  0  0  0  0  0  0  0
    4.9597   -0.7179    1.4085 H   0  0  0  0  0  0  0  0  0  0  0  0
    2.5610   -2.7457   -1.3488 H   0  0  0  0  0  0  0  0  0  0  0  0
    2.9626   -1.0331   -1.6564 H   0  0  0  0  0  0  0  0  0  0  0  0
    4.2039   -2.2791   -1.7980 H   0  0  0  0  0  0  0  0  0  0  0  0
    2.5140   -4.0986    3.5343 H   0  0  0  0  0  0  0  0  0  0  0  0
    3.3968   -2.7952    4.3495 H   0  0  0  0  0  0  0  0  0  0  0  0
    1.8803   -2.4483    3.4998 H   0  0  0  0  0  0  0  0  0  0  0  0
    5.3932   -3.3008    1.4064 H   0  0  0  0  0  0  0  0  0  0  0  0
    5.5344   -2.4405    2.9591 H   0  0  0  0  0  0  0  0  0  0  0  0
    4.9932   -4.1203    2.9136 H   0  0  0  0  0  0  0  0  0  0  0  0
  1  2  1  0  0  0  0
  2  3  1  0  0  0  0
  3  4  1  0  0  0  0
  4  5  4  0  0  0  0
  5  6  1  0  0  0  0
  5  7  1  0  0  0  0
  4  8  4  0  0  0  0
  8  9  1  0  0  0  0
  8 10  1  0  0  0  0
  1 11  1  0  0  0  0
  1 12  1  0  0  0  0
  1 13  1  0  0  0  0
  2 14  1  0  0  0  0
  2 15  1  0  0  0  0
  6 16  1  0  0  0  0
  6 17  1  0  0  0  0
  6 18  1  0  0  0  0
  7 19  1  0  0  0  0
  7 20  1  0  0  0  0
  7 21  1  0  0  0  0
  9 22  1  0  0  0  0
  9 23  1  0  0  0  0
  9 24  1  0  0  0  0
 10 25  1  0  0  0  0
 10 26  1  0  0  0  0
 10 27  1  0  0  0  0
M  CHG  1   1   1
M  END
