 xtb: 6.7.1 (edcfbbe)
          12202406463D

 39 39  0     0  0            999 V2000
    0.1051   -0.4547    0.2666 C   0  0  0  0  0  0  0  0  0  0  0  0
   -0.4640    0.8872   -0.1875 C   0  0  0  0  0  0  0  0  0  0  0  0
    0.5120    1.5674   -1.1915 C   0  0  0  0  0  0  0  0  0  0  0  0
    0.7161    0.7288   -2.4354 C   0  0  0  0  0  0  0  0  0  0  0  0
   -0.2008    0.6972   -3.4804 C   0  0  0  0  0  0  0  0  0  0  0  0
    0.0124   -0.1121   -4.5834 C   0  0  0  0  0  0  0  0  0  0  0  0
    1.1453   -0.9027   -4.6628 C   0  0  0  0  0  0  0  0  0  0  0  0
    2.0667   -0.8792   -3.6302 C   0  0  0  0  0  0  0  0  0  0  0  0
    1.8525   -0.0692   -2.5294 C   0  0  0  0  0  0  0  0  0  0  0  0
    0.0389    2.9979   -1.4872 C   0  0  0  0  0  0  0  0  0  0  0  0
    1.1009    3.9764   -1.8858 N   0  0  0  0  0  0  0  0  0  0  0  0
    1.8921    3.4737   -3.0227 C   0  0  0  0  0  0  0  0  0  0  0  0
    0.4357    5.2308   -2.2895 C   0  0  0  0  0  0  0  0  0  0  0  0
    1.9980    4.2682   -0.7532 C   0  0  0  0  0  0  0  0  0  0  0  0
   -1.8730    0.6907   -0.7362 C   0  0  0  0  0  0  0  0  0  0  0  0
    0.1754   -1.1456   -0.5694 H   0  0  0  0  0  0  0  0  0  0  0  0
   -0.5444   -0.8947    1.0176 H   0  0  0  0  0  0  0  0  0  0  0  0
    1.0938   -0.3357    0.7041 H   0  0  0  0  0  0  0  0  0  0  0  0
   -0.5229    1.5431    0.6900 H   0  0  0  0  0  0  0  0  0  0  0  0
    1.4693    1.6093   -0.6617 H   0  0  0  0  0  0  0  0  0  0  0  0
   -1.1035    1.2896   -3.4461 H   0  0  0  0  0  0  0  0  0  0  0  0
   -0.7157   -0.1283   -5.3798 H   0  0  0  0  0  0  0  0  0  0  0  0
    1.3058   -1.5360   -5.5206 H   0  0  0  0  0  0  0  0  0  0  0  0
    2.9517   -1.4942   -3.6779 H   0  0  0  0  0  0  0  0  0  0  0  0
    2.5762   -0.0676   -1.7260 H   0  0  0  0  0  0  0  0  0  0  0  0
   -0.6939    2.9739   -2.2938 H   0  0  0  0  0  0  0  0  0  0  0  0
   -0.4481    3.4031   -0.5972 H   0  0  0  0  0  0  0  0  0  0  0  0
    1.2362    3.2195   -3.8531 H   0  0  0  0  0  0  0  0  0  0  0  0
    2.5976    4.2360   -3.3491 H   0  0  0  0  0  0  0  0  0  0  0  0
    2.4438    2.5801   -2.7410 H   0  0  0  0  0  0  0  0  0  0  0  0
   -0.1782    5.6133   -1.4759 H   0  0  0  0  0  0  0  0  0  0  0  0
    1.1781    5.9838   -2.5486 H   0  0  0  0  0  0  0  0  0  0  0  0
   -0.1998    5.0596   -3.1565 H   0  0  0  0  0  0  0  0  0  0  0  0
    1.4268    4.6540    0.0894 H   0  0  0  0  0  0  0  0  0  0  0  0
    2.5232    3.3702   -0.4372 H   0  0  0  0  0  0  0  0  0  0  0  0
    2.7369    5.0122   -1.0452 H   0  0  0  0  0  0  0  0  0  0  0  0
   -2.5028    0.2663    0.0409 H   0  0  0  0  0  0  0  0  0  0  0  0
   -2.3238    1.6287   -1.0518 H   0  0  0  0  0  0  0  0  0  0  0  0
   -1.8665   -0.0016   -1.5732 H   0  0  0  0  0  0  0  0  0  0  0  0
  1  2  1  0  0  0  0
  2  3  1  0  0  0  0
  3  4  1  0  0  0  0
  4  5  4  0  0  0  0
  5  6  4  0  0  0  0
  6  7  4  0  0  0  0
  7  8  4  0  0  0  0
  4  9  4  0  0  0  0
  8  9  4  0  0  0  0
  3 10  1  0  0  0  0
 10 11  1  0  0  0  0
 11 12  1  0  0  0  0
 11 13  1  0  0  0  0
 11 14  1  0  0  0  0
  2 15  1  0  0  0  0
  1 16  1  0  0  0  0
  1 17  1  0  0  0  0
  1 18  1  0  0  0  0
  2 19  1  0  0  0  0
  3 20  1  0  0  0  0
  5 21  1  0  0  0  0
  6 22  1  0  0  0  0
  7 23  1  0  0  0  0
  8 24  1  0  0  0  0
  9 25  1  0  0  0  0
 10 26  1  0  0  0  0
 10 27  1  0  0  0  0
 12 28  1  0  0  0  0
 12 29  1  0  0  0  0
 12 30  1  0  0  0  0
 13 31  1  0  0  0  0
 13 32  1  0  0  0  0
 13 33  1  0  0  0  0
 14 34  1  0  0  0  0
 14 35  1  0  0  0  0
 14 36  1  0  0  0  0
 15 37  1  0  0  0  0
 15 38  1  0  0  0  0
 15 39  1  0  0  0  0
M  CHG  1   1   1
M  END
