 xtb: 6.7.1 (edcfbbe)
          12202406463D

 33 34  0     0  0            999 V2000
    1.6845   -0.6057    0.7290 C   0  0  0  0  0  0  0  0  0  0  0  0
    0.9257   -0.1262    1.9612 C   0  0  0  0  0  0  0  0  0  0  0  0
    1.1282    1.3639    2.2399 C   0  0  0  0  0  0  0  0  0  0  0  0
    0.3871    2.2876    1.2631 C   0  0  0  0  0  0  0  0  0  0  0  0
   -1.0363    2.2282    1.4713 N   0  0  0  0  0  0  0  0  0  0  0  0
   -1.5942    2.9514    2.3927 N   0  0  0  0  0  0  0  0  0  0  0  0
   -2.8650    2.6935    2.4197 N   0  0  0  0  0  0  0  0  0  0  0  0
   -3.1874    1.7546    1.4835 C   0  0  0  0  0  0  0  0  0  0  0  0
   -1.9631    1.4433    0.8470 C   0  0  0  0  0  0  0  0  0  0  0  0
   -1.9038    0.5161   -0.1937 C   0  0  0  0  0  0  0  0  0  0  0  0
   -3.0907   -0.0757   -0.5559 C   0  0  0  0  0  0  0  0  0  0  0  0
   -4.3063    0.2333    0.0790 C   0  0  0  0  0  0  0  0  0  0  0  0
   -4.3838    1.1478    1.1027 C   0  0  0  0  0  0  0  0  0  0  0  0
   -3.7338    3.3291    3.3782 C   0  0  0  0  0  0  0  0  0  0  0  0
   -4.0107    2.4019    4.5574 C   0  0  0  0  0  0  0  0  0  0  0  0
    1.3857   -0.0711   -0.1702 H   0  0  0  0  0  0  0  0  0  0  0  0
    1.5032   -1.6648    0.5669 H   0  0  0  0  0  0  0  0  0  0  0  0
    2.7531   -0.4623    0.8655 H   0  0  0  0  0  0  0  0  0  0  0  0
   -0.1389   -0.3523    1.8569 H   0  0  0  0  0  0  0  0  0  0  0  0
    1.2875   -0.6836    2.8263 H   0  0  0  0  0  0  0  0  0  0  0  0
    0.8001    1.6036    3.2533 H   0  0  0  0  0  0  0  0  0  0  0  0
    2.1911    1.5972    2.1712 H   0  0  0  0  0  0  0  0  0  0  0  0
    0.6962    3.3200    1.4367 H   0  0  0  0  0  0  0  0  0  0  0  0
    0.5974    2.0123    0.2297 H   0  0  0  0  0  0  0  0  0  0  0  0
   -0.9778    0.2725   -0.6864 H   0  0  0  0  0  0  0  0  0  0  0  0
   -3.0955   -0.8003   -1.3546 H   0  0  0  0  0  0  0  0  0  0  0  0
   -5.2033   -0.2643   -0.2536 H   0  0  0  0  0  0  0  0  0  0  0  0
   -5.3178    1.3857    1.5837 H   0  0  0  0  0  0  0  0  0  0  0  0
   -3.2281    4.2345    3.7169 H   0  0  0  0  0  0  0  0  0  0  0  0
   -4.6641    3.5977    2.8728 H   0  0  0  0  0  0  0  0  0  0  0  0
   -3.0883    2.1619    5.0794 H   0  0  0  0  0  0  0  0  0  0  0  0
   -4.6783    2.9000    5.2535 H   0  0  0  0  0  0  0  0  0  0  0  0
   -4.4812    1.4786    4.2299 H   0  0  0  0  0  0  0  0  0  0  0  0
  1  2  1  0  0  0  0
  2  3  1  0  0  0  0
  3  4  1  0  0  0  0
  4  5  1  0  0  0  0
  5  6  4  0  0  0  0
  6  7  4  0  0  0  0
  7  8  1  0  0  0  0
  5  9  1  0  0  0  0
  8  9  4  0  0  0  0
  9 10  4  0  0  0  0
 10 11  2  0  0  0  0
 11 12  4  0  0  0  0
  8 13  4  0  0  0  0
 12 13  2  0  0  0  0
  7 14  1  0  0  0  0
 14 15  1  0  0  0  0
  1 16  1  0  0  0  0
  1 17  1  0  0  0  0
  1 18  1  0  0  0  0
  2 19  1  0  0  0  0
  2 20  1  0  0  0  0
  3 21  1  0  0  0  0
  3 22  1  0  0  0  0
  4 23  1  0  0  0  0
  4 24  1  0  0  0  0
 10 25  1  0  0  0  0
 11 26  1  0  0  0  0
 12 27  1  0  0  0  0
 13 28  1  0  0  0  0
 14 29  1  0  0  0  0
 14 30  1  0  0  0  0
 15 31  1  0  0  0  0
 15 32  1  0  0  0  0
 15 33  1  0  0  0  0
M  CHG  1   1   1
M  END
