33

C          1.85164       -0.53398        0.66085
C          1.05490       -0.24155        1.92448
C          1.09404        1.23264        2.33379
C          0.34200        2.17778        1.39684
N         -1.11243        2.11480        1.58571
N         -1.64335        2.86847        2.54108
N         -2.93984        2.61214        2.43458
C         -3.26919        1.70077        1.43125
C         -2.04115        1.37846        0.84836
C         -1.93291        0.50039       -0.22436
C         -3.13813       -0.05531       -0.68038
C         -4.37704        0.26483       -0.08630
C         -4.47190        1.15900        0.99120
C         -3.85817        3.31465        3.33440
C         -3.91734        2.65233        4.69729
H          1.43293       -0.02617       -0.21186
H          1.84696       -1.60879        0.45327
H          2.89361       -0.21740        0.77363
H          0.02185       -0.58101        1.80057
H          1.48195       -0.83717        2.74052
H          0.68137        1.32318        3.34594
H          2.14147        1.55289        2.39137
H          0.65261        3.20957        1.60657
H          0.57707        1.99333        0.34469
H         -0.98151        0.25629       -0.67944
H         -3.11939       -0.75529       -1.51740
H         -5.28509       -0.19576       -0.47900
H         -5.42162        1.40896        1.44799
H         -3.52360        4.35430        3.42952
H         -4.85487        3.33714        2.88142
H         -2.93360        2.65925        5.17745
H         -4.62063        3.17993        5.34857
H         -4.23924        1.60992        4.61073
