 xtb: 6.7.1 (edcfbbe)
          12202406463D

 41 42  0     0  0            999 V2000
   -1.6750    1.1133    0.7973 C   0  0  0  0  0  0  0  0  0  0  0  0
   -0.4114    0.5141    0.2512 C   0  0  0  0  0  0  0  0  0  0  0  0
   -0.0485   -0.7859    0.5647 C   0  0  0  0  0  0  0  0  0  0  0  0
    1.1119   -1.3533    0.0539 C   0  0  0  0  0  0  0  0  0  0  0  0
    1.9316   -0.5857   -0.7694 C   0  0  0  0  0  0  0  0  0  0  0  0
    1.6114    0.7199   -1.0889 C   0  0  0  0  0  0  0  0  0  0  0  0
    0.4246    1.2681   -0.5800 C   0  0  0  0  0  0  0  0  0  0  0  0
    0.1421    2.5409   -0.9249 O   0  0  0  0  0  0  0  0  0  0  0  0
    2.4891    1.5661   -1.9505 C   0  0  0  0  0  0  0  0  0  0  0  0
    1.4908   -2.7694    0.3822 C   0  0  0  0  0  0  0  0  0  0  0  0
    0.7545   -3.7818   -0.4652 N   0  0  0  0  0  0  0  0  0  0  0  0
   -0.6896   -3.7236   -0.1335 C   0  0  0  0  0  0  0  0  0  0  0  0
   -1.6323   -3.2532   -1.0343 C   0  0  0  0  0  0  0  0  0  0  0  0
   -2.9699   -3.1981   -0.6702 C   0  0  0  0  0  0  0  0  0  0  0  0
   -3.3778   -3.6065    0.5857 C   0  0  0  0  0  0  0  0  0  0  0  0
   -2.4353   -4.0708    1.4875 C   0  0  0  0  0  0  0  0  0  0  0  0
   -1.0991   -4.1269    1.1335 C   0  0  0  0  0  0  0  0  0  0  0  0
    1.2707   -5.1374   -0.1806 C   0  0  0  0  0  0  0  0  0  0  0  0
    1.0264   -3.4965   -1.8857 C   0  0  0  0  0  0  0  0  0  0  0  0
   -1.4575    1.9752    1.4296 H   0  0  0  0  0  0  0  0  0  0  0  0
   -2.3368    1.4332   -0.0090 H   0  0  0  0  0  0  0  0  0  0  0  0
   -2.2091    0.3839    1.3996 H   0  0  0  0  0  0  0  0  0  0  0  0
   -0.6833   -1.3546    1.2279 H   0  0  0  0  0  0  0  0  0  0  0  0
    2.8511   -1.0025   -1.1545 H   0  0  0  0  0  0  0  0  0  0  0  0
   -0.6698    2.8414   -0.4981 H   0  0  0  0  0  0  0  0  0  0  0  0
    1.9347    1.9182   -2.8185 H   0  0  0  0  0  0  0  0  0  0  0  0
    2.8069    2.4482   -1.3978 H   0  0  0  0  0  0  0  0  0  0  0  0
    3.3658    1.0168   -2.2802 H   0  0  0  0  0  0  0  0  0  0  0  0
    2.5585   -2.9192    0.2108 H   0  0  0  0  0  0  0  0  0  0  0  0
    1.2677   -2.9874    1.4272 H   0  0  0  0  0  0  0  0  0  0  0  0
   -1.3649   -2.9176   -2.0207 H   0  0  0  0  0  0  0  0  0  0  0  0
   -3.6910   -2.8299   -1.3823 H   0  0  0  0  0  0  0  0  0  0  0  0
   -4.4186   -3.5620    0.8627 H   0  0  0  0  0  0  0  0  0  0  0  0
   -2.7341   -4.3893    2.4735 H   0  0  0  0  0  0  0  0  0  0  0  0
   -0.3942   -4.4814    1.8688 H   0  0  0  0  0  0  0  0  0  0  0  0
    0.6753   -5.8742   -0.7180 H   0  0  0  0  0  0  0  0  0  0  0  0
    2.3074   -5.2144   -0.5042 H   0  0  0  0  0  0  0  0  0  0  0  0
    1.2282   -5.3615    0.8816 H   0  0  0  0  0  0  0  0  0  0  0  0
    0.4881   -4.1986   -2.5194 H   0  0  0  0  0  0  0  0  0  0  0  0
    0.7407   -2.4747   -2.1269 H   0  0  0  0  0  0  0  0  0  0  0  0
    2.0937   -3.6029   -2.0723 H   0  0  0  0  0  0  0  0  0  0  0  0
  1  2  1  0  0  0  0
  2  3  4  0  0  0  0
  3  4  4  0  0  0  0
  4  5  4  0  0  0  0
  5  6  4  0  0  0  0
  2  7  4  0  0  0  0
  6  7  4  0  0  0  0
  7  8  1  0  0  0  0
  6  9  1  0  0  0  0
  4 10  1  0  0  0  0
 10 11  1  0  0  0  0
 11 12  1  0  0  0  0
 12 13  4  0  0  0  0
 13 14  4  0  0  0  0
 14 15  4  0  0  0  0
 15 16  4  0  0  0  0
 12 17  4  0  0  0  0
 16 17  4  0  0  0  0
 11 18  1  0  0  0  0
 11 19  1  0  0  0  0
  1 20  1  0  0  0  0
  1 21  1  0  0  0  0
  1 22  1  0  0  0  0
  3 23  1  0  0  0  0
  5 24  1  0  0  0  0
  8 25  1  0  0  0  0
  9 26  1  0  0  0  0
  9 27  1  0  0  0  0
  9 28  1  0  0  0  0
 10 29  1  0  0  0  0
 10 30  1  0  0  0  0
 13 31  1  0  0  0  0
 14 32  1  0  0  0  0
 15 33  1  0  0  0  0
 16 34  1  0  0  0  0
 17 35  1  0  0  0  0
 18 36  1  0  0  0  0
 18 37  1  0  0  0  0
 18 38  1  0  0  0  0
 19 39  1  0  0  0  0
 19 40  1  0  0  0  0
 19 41  1  0  0  0  0
M  CHG  1   1   1
M  END
