19

N          0.92436        0.03599       -0.05462
C          2.18533        0.03599       -0.05462
C          3.70533        0.03599       -0.05462
C          4.25637       -1.37312       -0.19903
N          3.79183       -2.06334       -1.43666
C          3.15176       -3.25558       -1.32939
C          2.75679       -3.95647       -2.46272
C          3.01088       -3.42346       -3.71797
C          3.66751       -2.20508       -3.81783
C          4.06464       -1.54546       -2.66019
H          4.05351        0.68503       -0.86467
H          4.05770        0.47375        0.88591
H          5.35124       -1.35976       -0.25384
H          3.97150       -1.98614        0.66352
H          2.96906       -3.65177       -0.33398
H          2.25306       -4.91667       -2.36733
H          2.70143       -3.95801       -4.61553
H          3.87443       -1.77532       -4.79597
H          4.60289       -0.60346       -2.70985
