33

O          0.93760       -0.89379        0.66808
C          2.05297       -0.40015        0.49921
C          3.02344       -0.38192        1.63256
C          2.77514       -1.24046        2.71638
C          3.66407       -1.30548        3.79206
C          4.79960       -0.50627        3.78296
C          5.04912        0.36456        2.72820
C          4.15837        0.43644        1.65303
O          5.70405       -0.54049        4.79956
C          2.44183        0.12583       -0.86810
C          2.23236       -0.96739       -1.92019
N          0.96749       -0.82527       -2.79645
C          0.98866        0.44887       -3.62860
C          0.93306       -2.02293       -3.75381
C         -0.30776       -0.86729       -1.95417
H          1.88698       -1.87065        2.73131
H          3.45499       -1.97969        4.61767
H          5.93778        0.99176        2.75000
H          4.37815        1.15144        0.86733
H          5.40232       -1.16609        5.47995
H          1.88108        1.04427       -1.05608
H          3.50224        0.38664       -0.88675
H          3.07362       -0.94753       -2.62439
H          2.19843       -1.96773       -1.47135
H          1.92716        0.48090       -4.18918
H          0.13586        0.42796       -4.31429
H          0.90511        1.31251       -2.96542
H          0.90355       -2.94108       -3.15933
H          0.03895       -1.94469       -4.37933
H          1.83525       -1.99472       -4.37224
H         -0.30190       -1.78644       -1.36242
H         -0.34345        0.02431       -1.32422
H         -1.16531       -0.86723       -2.63445
