41

C         -1.79248        1.17269       -0.82738
C         -0.40000        0.65170       -0.60024
C         -0.16269       -0.73412       -0.68257
C          1.11088       -1.28150       -0.47426
C          2.16014       -0.39133       -0.17200
C          1.95352        0.99207       -0.08140
C          0.66833        1.50040       -0.29176
O          0.51173        2.85292       -0.17562
C          3.09473        1.90814        0.26609
C          1.46345       -2.75570       -0.50214
N          0.45116       -3.83887       -0.94483
C         -0.80149       -3.83506       -0.08822
C         -2.07189       -4.04825       -0.64493
C         -3.21607       -4.04759        0.16067
C         -3.10645       -3.85152        1.53337
C         -1.85320       -3.66923        2.10623
C         -0.70778       -3.67092        1.30432
C          1.09454       -5.21726       -0.76032
C          0.16392       -3.65229       -2.43235
H         -2.17782        1.63119        0.08886
H         -1.79466        1.91078       -1.63593
H         -2.48279        0.37243       -1.11474
H         -1.01602       -1.36427       -0.90625
H          3.16456       -0.77586        0.00843
H         -0.41926        3.10000       -0.28466
H          3.20630        2.68579       -0.49640
H          2.91903        2.37561        1.24036
H          4.04348        1.36408        0.32129
H          2.31773       -2.87413       -1.18391
H          1.83142       -3.04546        0.48986
H         -2.22782       -4.21822       -1.70471
H         -4.19823       -4.20328       -0.28324
H         -3.99811       -3.84923        2.15845
H         -1.76710       -3.52648        3.18254
H          0.24248       -3.53929        1.81123
H          0.37791       -5.98605       -1.06783
H          1.98862       -5.26406       -1.39019
H          1.37349       -5.34791        0.29007
H         -0.36663       -4.53234       -2.81003
H         -0.42361       -2.74602       -2.59192
H          1.11965       -3.57182       -2.96106
