26

O          1.11703       -0.28791        0.11050
C          0.60049        0.84638        0.81437
C          1.01739        0.77175        2.29658
N          2.49750        0.76916        2.41852
C          3.34532        1.81402        2.75218
C          4.61933        1.32006        2.71145
N          4.52254       -0.00809        2.33605
C          3.23356       -0.31908        2.12931
C          5.63388       -0.94510        2.16761
C          5.85148       -1.76312        3.42571
C          0.34908        1.86897        3.11577
H          0.77847       -0.22912       -0.80425
H          0.99959        1.75008        0.34262
H         -0.48995        0.83992        0.71856
H          0.69397       -0.19795        2.69948
H          2.94238        2.78444        2.98406
H          5.59019        1.74530        2.89952
H          2.85184       -1.28051        1.80305
H          5.40554       -1.60000        1.31970
H          6.53786       -0.37907        1.91792
H          4.95476       -2.33969        3.67470
H          6.68430       -2.45973        3.29240
H          6.07583       -1.11382        4.27806
H         -0.73993        1.75599        3.09658
H          0.67443        1.82608        4.16046
H          0.58860        2.86408        2.72720
