60

C          1.41868        0.50699        0.65501
C          1.39602        1.38109       -0.58966
C          1.72533        0.62116       -1.87738
C          0.79443       -0.54941       -2.20984
C         -0.68851       -0.19078       -2.34350
C         -1.02250        0.81241       -3.45252
C         -0.64576        0.37449       -4.87271
C         -1.23460       -0.96544       -5.32948
C         -2.76112       -1.07515       -5.25304
C         -3.53926       -0.04351       -6.07720
C         -3.28582       -0.07462       -7.59089
C         -3.70896       -1.36461       -8.31151
N         -5.12985       -1.35207       -8.90799
C         -5.22868       -0.29346      -10.01130
O         -4.34378       -0.52824      -11.08943
C         -3.45947        0.55050      -11.38512
C         -4.18030        1.74799      -11.97707
C         -5.41134       -2.71177       -9.60165
C         -5.51642       -3.88777       -8.64062
C         -6.19712       -1.06107       -7.87009
H          0.61760       -0.23787        0.63712
H          1.27716        1.12232        1.54929
H          2.37563       -0.01554        0.75114
H          0.42030        1.87174       -0.67437
H          2.13405        2.18274       -0.46499
H          1.73228        1.33194       -2.71204
H          2.74939        0.23346       -1.80426
H          1.14350       -1.01848       -3.13724
H          0.89550       -1.32101       -1.43723
H         -1.25391       -1.11573       -2.50589
H         -1.05578        0.20915       -1.39119
H         -2.09795        1.02317       -3.41405
H         -0.53035        1.76915       -3.24121
H         -0.95303        1.16232       -5.57107
H          0.44628        0.31952       -4.95662
H         -0.90400       -1.16024       -6.35647
H         -0.80079       -1.77295       -4.72768
H         -3.05159       -2.08703       -5.55594
H         -3.07829       -0.98622       -4.20731
H         -4.60517       -0.17800       -5.87222
H         -3.29838        0.96180       -5.71155
H         -3.75318        0.81006       -8.03000
H         -2.21104        0.06327       -7.75926
H         -3.02681       -1.55479       -9.14825
H         -3.64621       -2.22087       -7.63840
H         -6.25343       -0.33676      -10.40246
H         -5.10007        0.69115       -9.55591
H         -2.89423        0.82903      -10.48984
H         -2.73844        0.17231      -12.11823
H         -4.85008        2.21162      -11.24630
H         -3.45981        2.50372      -12.30351
H         -4.79406        1.44828      -12.83193
H         -6.35420       -2.60463      -10.15142
H         -4.60370       -2.89022      -10.32033
H         -6.32862       -3.76221       -7.91966
H         -5.73136       -4.79956       -9.20879
H         -4.58667       -4.06584       -8.09488
H         -6.03440       -1.70827       -7.00424
H         -6.13049       -0.01027       -7.57694
H         -7.17867       -1.25450       -8.31416
