80

C          1.22444        0.09436       -0.91649
C          1.36016       -1.20373       -0.13564
C          1.70554       -0.99235        1.34094
C          0.66683       -0.21326        2.15608
C         -0.74119       -0.81844        2.17583
C         -0.83047       -2.24429        2.73136
C         -0.40338       -2.40161        4.19579
C         -1.23463       -1.60505        5.20916
C         -2.73437       -1.92255        5.21332
C         -3.08818       -3.36946        5.57799
C         -2.73851       -3.78710        7.01333
C         -3.37756       -2.93879        8.12162
C         -4.90841       -2.88517        8.08658
C         -5.60246       -4.18399        8.51768
C         -5.54953       -4.51270       10.02126
C         -6.03907       -3.43148       10.99764
N         -7.56291       -3.36054       11.24035
C         -8.14660       -4.69534       11.81083
C         -7.44394       -5.32270       13.02353
C         -7.78066       -4.81100       14.42871
C         -9.26791       -4.66276       14.70768
C         -7.89519       -2.21072       12.23216
C         -7.32015       -0.81409       11.94358
C         -7.87991        0.00829       10.78356
C         -9.37961        0.24170       10.85743
C         -8.32445       -3.12079        9.93171
H          0.37396        0.68681       -0.56686
H          1.06453       -0.12039       -1.97800
H          2.13047        0.70208       -0.82730
H          0.43998       -1.78940       -0.23539
H          2.15692       -1.80222       -0.59376
H          1.87452       -1.97117        1.80484
H          2.66349       -0.46111        1.40661
H          1.03543       -0.11407        3.18393
H          0.59910        0.81099        1.77036
H         -1.39652       -0.15711        2.75464
H         -1.15055       -0.81517        1.15875
H         -1.85993       -2.60087        2.61042
H         -0.21947       -2.91498        2.11633
H         -0.43948       -3.46613        4.45512
H          0.64835       -2.11168        4.30291
H         -0.82224       -1.77622        6.21043
H         -1.10643       -0.53294        5.01866
H         -3.23590       -1.23408        5.90301
H         -3.15730       -1.69768        4.22748
H         -4.16081       -3.51790        5.40836
H         -2.59313       -4.05754        4.88338
H         -3.02800       -4.83588        7.14782
H         -1.64984       -3.76207        7.14140
H         -3.04051       -3.31518        9.09424
H         -2.99122       -1.91507        8.05329
H         -5.24471       -2.04832        8.70536
H         -5.24731       -2.63002        7.07693
H         -6.64097       -4.14008        8.18264
H         -5.16898       -5.02822        7.96849
H         -6.06664       -5.46164       10.19304
H         -4.49899       -4.71280       10.26886
H         -5.57984       -3.58136       11.98021
H         -5.72019       -2.44851       10.65428
H         -9.21132       -4.52089       11.99850
H         -8.09146       -5.42159       10.99134
H         -7.73459       -6.38344       13.01804
H         -6.35761       -5.33636       12.89774
H         -7.37066       -5.52907       15.15098
H         -7.26632       -3.87090       14.64218
H         -9.80591       -5.58837       14.48033
H         -9.43008       -4.42887       15.76497
H         -9.70884       -3.85075       14.12290
H         -8.98322       -2.18144       12.34861
H         -7.46491       -2.51400       13.18458
H         -7.49444       -0.22253       12.85408
H         -6.22981       -0.85418       11.85644
H         -7.38686        0.98908       10.80241
H         -7.61027       -0.42615        9.81969
H         -9.65421        0.72264       11.80140
H         -9.69629        0.89791       10.04020
H         -9.94402       -0.68935       10.77049
H         -7.79548       -2.37784        9.33772
H         -8.38257       -4.05984        9.37529
H         -9.34044       -2.79870       10.16992
