52

C         -4.64128        3.81965       -0.08331
C         -3.28160        4.28437        0.41642
N         -2.91638        3.76854        1.82049
C         -2.96201        2.24001        1.84906
O         -2.24600        1.64590        0.78499
C         -1.15394        0.80011        1.18439
C         -1.68038       -0.54942        1.70106
C         -2.19614       -1.50628        0.61921
C         -3.57699       -1.11017        0.09143
C         -1.17206       -1.65501       -0.50699
C         -0.72248       -0.31828       -1.08305
C         -0.21340        0.70025       -0.04362
C          1.29675        0.61074        0.33798
C          1.70184       -0.53317        1.26339
C          2.20922        0.61900       -0.89477
C         -1.46438        4.17117        2.15525
C         -1.25000        5.67058        2.29144
C         -3.87704        4.29696        2.87443
H         -4.68513        2.73574       -0.21861
H         -4.84036        4.27142       -1.06135
H         -5.45170        4.12508        0.58379
H         -2.49136        3.96467       -0.27234
H         -3.27620        5.37790        0.46278
H         -2.60912        1.91969        2.83780
H         -4.01114        1.93656        1.76496
H         -0.61786        1.31031        1.99434
H         -2.47513       -0.39087        2.43955
H         -0.87527       -1.06183        2.23788
H         -2.31872       -2.49290        1.08656
H         -4.29557       -1.02911        0.91392
H         -3.56837       -0.15729       -0.44337
H         -3.95253       -1.87246       -0.60008
H         -0.30319       -2.20515       -0.13295
H         -1.59045       -2.27219       -1.31169
H         -1.57723        0.13182       -1.60541
H          0.02121       -0.49478       -1.86586
H         -0.28781        1.66963       -0.56342
H          1.52286        1.53792        0.88497
H          1.49004       -1.51157        0.82870
H          2.77872       -0.49505        1.46542
H          1.20473       -0.45698        2.23335
H          1.91868        1.40843       -1.59571
H          3.24771        0.80677       -0.60000
H          2.18894       -0.33996       -1.42201
H         -1.20045        3.67710        3.09780
H         -0.82127        3.77425        1.36174
H         -1.84674        6.10038        3.10046
H         -0.19862        5.86391        2.53156
H         -1.47091        6.20753        1.36575
H         -3.97044        5.37989        2.75841
H         -4.85384        3.82479        2.73876
H         -3.48004        4.04571        3.86254
