 xtb: 6.7.1 (edcfbbe)
          12202406473D

 61 62  0     0  0            999 V2000
    1.5312   -0.1935   -0.8123 C   0  0  0  0  0  0  0  0  0  0  0  0
    0.1061   -0.7232   -0.6341 C   0  0  0  0  0  0  0  0  0  0  0  0
   -0.6854   -0.5938   -1.9097 C   0  0  0  0  0  0  0  0  0  0  0  0
   -1.2395   -1.7103   -2.5253 C   0  0  0  0  0  0  0  0  0  0  0  0
   -1.9939   -1.5788   -3.6726 C   0  0  0  0  0  0  0  0  0  0  0  0
   -2.2058   -0.3431   -4.2788 C   0  0  0  0  0  0  0  0  0  0  0  0
   -1.6193    0.7815   -3.6896 C   0  0  0  0  0  0  0  0  0  0  0  0
   -0.8969    0.6392   -2.5056 C   0  0  0  0  0  0  0  0  0  0  0  0
   -1.7692    2.1687   -4.2578 C   0  0  0  0  0  0  0  0  0  0  0  0
   -0.6502    2.5938   -5.1662 N   0  0  0  0  0  0  0  0  0  0  0  0
   -0.9967    3.9150   -5.8009 C   0  0  0  0  0  0  0  0  0  0  0  0
   -2.2899    3.9183   -6.5774 C   0  0  0  0  0  0  0  0  0  0  0  0
   -2.2801    3.4250   -7.8800 C   0  0  0  0  0  0  0  0  0  0  0  0
   -3.4307    3.3470   -8.6501 C   0  0  0  0  0  0  0  0  0  0  0  0
   -4.6152    3.8074   -8.0893 C   0  0  0  0  0  0  0  0  0  0  0  0
   -4.6270    4.3590   -6.8234 C   0  0  0  0  0  0  0  0  0  0  0  0
   -3.4777    4.4342   -6.0437 C   0  0  0  0  0  0  0  0  0  0  0  0
   -3.5639    5.0958   -4.6990 C   0  0  0  0  0  0  0  0  0  0  0  0
   -3.4005    2.7741  -10.0434 C   0  0  0  0  0  0  0  0  0  0  0  0
   -2.4588    3.5697  -10.9488 C   0  0  0  0  0  0  0  0  0  0  0  0
   -3.0033    1.2955  -10.0071 C   0  0  0  0  0  0  0  0  0  0  0  0
    0.5930    2.7635   -4.3955 C   0  0  0  0  0  0  0  0  0  0  0  0
   -0.4193    1.5686   -6.1954 C   0  0  0  0  0  0  0  0  0  0  0  0
   -3.0582   -0.3203   -5.5148 C   0  0  0  0  0  0  0  0  0  0  0  0
   -0.6026   -0.0038    0.5157 C   0  0  0  0  0  0  0  0  0  0  0  0
    1.5336    0.8800   -0.9887 H   0  0  0  0  0  0  0  0  0  0  0  0
    2.0214   -0.6871   -1.6491 H   0  0  0  0  0  0  0  0  0  0  0  0
    2.1115   -0.3874    0.0855 H   0  0  0  0  0  0  0  0  0  0  0  0
    0.1687   -1.7864   -0.3834 H   0  0  0  0  0  0  0  0  0  0  0  0
   -1.0958   -2.6876   -2.0905 H   0  0  0  0  0  0  0  0  0  0  0  0
   -2.4393   -2.4557   -4.1174 H   0  0  0  0  0  0  0  0  0  0  0  0
   -0.5061    1.5232   -2.0227 H   0  0  0  0  0  0  0  0  0  0  0  0
   -2.6909    2.2499   -4.8341 H   0  0  0  0  0  0  0  0  0  0  0  0
   -1.8035    2.8908   -3.4398 H   0  0  0  0  0  0  0  0  0  0  0  0
   -0.1710    4.1723   -6.4686 H   0  0  0  0  0  0  0  0  0  0  0  0
   -1.0365    4.6545   -5.0007 H   0  0  0  0  0  0  0  0  0  0  0  0
   -1.3427    3.1147   -8.3173 H   0  0  0  0  0  0  0  0  0  0  0  0
   -5.5313    3.7598   -8.6577 H   0  0  0  0  0  0  0  0  0  0  0  0
   -5.5524    4.7482   -6.4270 H   0  0  0  0  0  0  0  0  0  0  0  0
   -2.7617    5.8181   -4.5566 H   0  0  0  0  0  0  0  0  0  0  0  0
   -4.5050    5.6326   -4.6198 H   0  0  0  0  0  0  0  0  0  0  0  0
   -3.5325    4.3750   -3.8831 H   0  0  0  0  0  0  0  0  0  0  0  0
   -4.4105    2.8435  -10.4580 H   0  0  0  0  0  0  0  0  0  0  0  0
   -1.4258    3.4775  -10.6232 H   0  0  0  0  0  0  0  0  0  0  0  0
   -2.5264    3.2002  -11.9684 H   0  0  0  0  0  0  0  0  0  0  0  0
   -2.7288    4.6227  -10.9458 H   0  0  0  0  0  0  0  0  0  0  0  0
   -3.6685    0.7365   -9.3517 H   0  0  0  0  0  0  0  0  0  0  0  0
   -3.0701    0.8702  -11.0047 H   0  0  0  0  0  0  0  0  0  0  0  0
   -1.9808    1.1727   -9.6555 H   0  0  0  0  0  0  0  0  0  0  0  0
    0.8711    1.8174   -3.9340 H   0  0  0  0  0  0  0  0  0  0  0  0
    1.3994    3.0859   -5.0521 H   0  0  0  0  0  0  0  0  0  0  0  0
    0.4582    3.5124   -3.6170 H   0  0  0  0  0  0  0  0  0  0  0  0
   -0.1557    0.6265   -5.7186 H   0  0  0  0  0  0  0  0  0  0  0  0
   -1.3212    1.4283   -6.7853 H   0  0  0  0  0  0  0  0  0  0  0  0
    0.3961    1.8754   -6.8480 H   0  0  0  0  0  0  0  0  0  0  0  0
   -2.5031   -0.7125   -6.3674 H   0  0  0  0  0  0  0  0  0  0  0  0
   -3.9159   -0.9730   -5.3664 H   0  0  0  0  0  0  0  0  0  0  0  0
   -3.4356    0.6659   -5.7710 H   0  0  0  0  0  0  0  0  0  0  0  0
   -1.6149   -0.3827    0.6345 H   0  0  0  0  0  0  0  0  0  0  0  0
   -0.0627   -0.1670    1.4445 H   0  0  0  0  0  0  0  0  0  0  0  0
   -0.6546    1.0673    0.3355 H   0  0  0  0  0  0  0  0  0  0  0  0
  1  2  1  0  0  0  0
  2  3  1  0  0  0  0
  3  4  4  0  0  0  0
  4  5  4  0  0  0  0
  5  6  4  0  0  0  0
  6  7  4  0  0  0  0
  3  8  4  0  0  0  0
  7  8  4  0  0  0  0
  7  9  1  0  0  0  0
  9 10  1  0  0  0  0
 10 11  1  0  0  0  0
 11 12  1  0  0  0  0
 12 13  4  0  0  0  0
 13 14  4  0  0  0  0
 14 15  4  0  0  0  0
 15 16  4  0  0  0  0
 12 17  4  0  0  0  0
 16 17  4  0  0  0  0
 17 18  1  0  0  0  0
 14 19  1  0  0  0  0
 19 20  1  0  0  0  0
 19 21  1  0  0  0  0
 10 22  1  0  0  0  0
 10 23  1  0  0  0  0
  6 24  1  0  0  0  0
  2 25  1  0  0  0  0
  1 26  1  0  0  0  0
  1 27  1  0  0  0  0
  1 28  1  0  0  0  0
  2 29  1  0  0  0  0
  4 30  1  0  0  0  0
  5 31  1  0  0  0  0
  8 32  1  0  0  0  0
  9 33  1  0  0  0  0
  9 34  1  0  0  0  0
 11 35  1  0  0  0  0
 11 36  1  0  0  0  0
 13 37  1  0  0  0  0
 15 38  1  0  0  0  0
 16 39  1  0  0  0  0
 18 40  1  0  0  0  0
 18 41  1  0  0  0  0
 18 42  1  0  0  0  0
 19 43  1  0  0  0  0
 20 44  1  0  0  0  0
 20 45  1  0  0  0  0
 20 46  1  0  0  0  0
 21 47  1  0  0  0  0
 21 48  1  0  0  0  0
 21 49  1  0  0  0  0
 22 50  1  0  0  0  0
 22 51  1  0  0  0  0
 22 52  1  0  0  0  0
 23 53  1  0  0  0  0
 23 54  1  0  0  0  0
 23 55  1  0  0  0  0
 24 56  1  0  0  0  0
 24 57  1  0  0  0  0
 24 58  1  0  0  0  0
 25 59  1  0  0  0  0
 25 60  1  0  0  0  0
 25 61  1  0  0  0  0
M  CHG  1   1   1
M  END
