 xtb: 6.7.1 (edcfbbe)
          12202406463D

 57 57  0     0  0            999 V2000
   -5.8649    5.4420    1.4439 C   0  0  0  0  0  0  0  0  0  0  0  0
   -5.7116    5.0428    2.9069 C   0  0  0  0  0  0  0  0  0  0  0  0
   -5.3408    3.5719    3.1031 C   0  0  0  0  0  0  0  0  0  0  0  0
   -4.0207    3.1415    2.4581 C   0  0  0  0  0  0  0  0  0  0  0  0
   -2.7848    3.8551    3.0142 C   0  0  0  0  0  0  0  0  0  0  0  0
   -2.4342    3.4714    4.4613 C   0  0  0  0  0  0  0  0  0  0  0  0
   -1.1465    2.6456    4.5948 C   0  0  0  0  0  0  0  0  0  0  0  0
   -1.3535    1.2715    3.9390 C   0  0  0  0  0  0  0  0  0  0  0  0
   -0.1539    0.3937    3.8102 C   0  0  0  0  0  0  0  0  0  0  0  0
    1.1411    0.8883    3.9513 C   0  0  0  0  0  0  0  0  0  0  0  0
    2.2434    0.0628    3.8456 C   0  0  0  0  0  0  0  0  0  0  0  0
    2.0422   -1.2920    3.6085 C   0  0  0  0  0  0  0  0  0  0  0  0
    0.7544   -1.7416    3.4529 C   0  0  0  0  0  0  0  0  0  0  0  0
   -0.3090   -0.9233    3.5372 N   0  0  0  0  0  0  0  0  0  0  0  0
   -1.6079   -1.5008    3.2261 C   0  0  0  0  0  0  0  0  0  0  0  0
   -1.9537   -1.3182    1.7405 C   0  0  0  0  0  0  0  0  0  0  0  0
   -1.0813   -2.1415    0.7925 C   0  0  0  0  0  0  0  0  0  0  0  0
   -1.2622   -3.6587    0.8959 C   0  0  0  0  0  0  0  0  0  0  0  0
   -2.6834   -4.1589    0.6265 C   0  0  0  0  0  0  0  0  0  0  0  0
   -3.1948   -3.8052   -0.7646 C   0  0  0  0  0  0  0  0  0  0  0  0
   -0.7856    2.4854    6.0709 C   0  0  0  0  0  0  0  0  0  0  0  0
   -4.9118    5.4101    0.9215 H   0  0  0  0  0  0  0  0  0  0  0  0
   -6.2509    6.4559    1.3732 H   0  0  0  0  0  0  0  0  0  0  0  0
   -6.5606    4.7765    0.9374 H   0  0  0  0  0  0  0  0  0  0  0  0
   -4.9685    5.6836    3.3850 H   0  0  0  0  0  0  0  0  0  0  0  0
   -6.6603    5.2154    3.4194 H   0  0  0  0  0  0  0  0  0  0  0  0
   -5.3078    3.3663    4.1756 H   0  0  0  0  0  0  0  0  0  0  0  0
   -6.1369    2.9553    2.6785 H   0  0  0  0  0  0  0  0  0  0  0  0
   -3.9185    2.0599    2.5916 H   0  0  0  0  0  0  0  0  0  0  0  0
   -4.0763    3.3293    1.3850 H   0  0  0  0  0  0  0  0  0  0  0  0
   -1.9319    3.6462    2.3622 H   0  0  0  0  0  0  0  0  0  0  0  0
   -2.9576    4.9283    2.9551 H   0  0  0  0  0  0  0  0  0  0  0  0
   -2.3048    4.3759    5.0551 H   0  0  0  0  0  0  0  0  0  0  0  0
   -3.2596    2.9149    4.9074 H   0  0  0  0  0  0  0  0  0  0  0  0
   -0.3533    3.1925    4.0772 H   0  0  0  0  0  0  0  0  0  0  0  0
   -2.1216    0.7578    4.5237 H   0  0  0  0  0  0  0  0  0  0  0  0
   -1.7696    1.4309    2.9400 H   0  0  0  0  0  0  0  0  0  0  0  0
    1.2817    1.9385    4.1414 H   0  0  0  0  0  0  0  0  0  0  0  0
    3.2389    0.4631    3.9526 H   0  0  0  0  0  0  0  0  0  0  0  0
    2.8669   -1.9814    3.5371 H   0  0  0  0  0  0  0  0  0  0  0  0
    0.5513   -2.7835    3.2586 H   0  0  0  0  0  0  0  0  0  0  0  0
   -1.5814   -2.5648    3.4628 H   0  0  0  0  0  0  0  0  0  0  0  0
   -2.3783   -1.0400    3.8431 H   0  0  0  0  0  0  0  0  0  0  0  0
   -2.9970   -1.6021    1.6096 H   0  0  0  0  0  0  0  0  0  0  0  0
   -1.8656   -0.2642    1.4714 H   0  0  0  0  0  0  0  0  0  0  0  0
   -1.3202   -1.8354   -0.2259 H   0  0  0  0  0  0  0  0  0  0  0  0
   -0.0266   -1.8972    0.9539 H   0  0  0  0  0  0  0  0  0  0  0  0
   -0.5917   -4.1188    0.1678 H   0  0  0  0  0  0  0  0  0  0  0  0
   -0.9527   -4.0158    1.8821 H   0  0  0  0  0  0  0  0  0  0  0  0
   -2.6761   -5.2454    0.7306 H   0  0  0  0  0  0  0  0  0  0  0  0
   -3.3719   -3.7711    1.3804 H   0  0  0  0  0  0  0  0  0  0  0  0
   -2.4964   -4.1464   -1.5246 H   0  0  0  0  0  0  0  0  0  0  0  0
   -4.1517   -4.2884   -0.9420 H   0  0  0  0  0  0  0  0  0  0  0  0
   -3.3355   -2.7332   -0.8793 H   0  0  0  0  0  0  0  0  0  0  0  0
    0.0871    1.8511    6.2102 H   0  0  0  0  0  0  0  0  0  0  0  0
   -0.5734    3.4546    6.5128 H   0  0  0  0  0  0  0  0  0  0  0  0
   -1.6170    2.0443    6.6166 H   0  0  0  0  0  0  0  0  0  0  0  0
  1  2  1  0  0  0  0
  2  3  1  0  0  0  0
  3  4  1  0  0  0  0
  4  5  1  0  0  0  0
  5  6  1  0  0  0  0
  6  7  1  0  0  0  0
  7  8  1  0  0  0  0
  8  9  1  0  0  0  0
  9 10  4  0  0  0  0
 10 11  4  0  0  0  0
 11 12  4  0  0  0  0
 12 13  4  0  0  0  0
  9 14  4  0  0  0  0
 13 14  4  0  0  0  0
 14 15  1  0  0  0  0
 15 16  1  0  0  0  0
 16 17  1  0  0  0  0
 17 18  1  0  0  0  0
 18 19  1  0  0  0  0
 19 20  1  0  0  0  0
  7 21  1  0  0  0  0
  1 22  1  0  0  0  0
  1 23  1  0  0  0  0
  1 24  1  0  0  0  0
  2 25  1  0  0  0  0
  2 26  1  0  0  0  0
  3 27  1  0  0  0  0
  3 28  1  0  0  0  0
  4 29  1  0  0  0  0
  4 30  1  0  0  0  0
  5 31  1  0  0  0  0
  5 32  1  0  0  0  0
  6 33  1  0  0  0  0
  6 34  1  0  0  0  0
  7 35  1  0  0  0  0
  8 36  1  0  0  0  0
  8 37  1  0  0  0  0
 10 38  1  0  0  0  0
 11 39  1  0  0  0  0
 12 40  1  0  0  0  0
 13 41  1  0  0  0  0
 15 42  1  0  0  0  0
 15 43  1  0  0  0  0
 16 44  1  0  0  0  0
 16 45  1  0  0  0  0
 17 46  1  0  0  0  0
 17 47  1  0  0  0  0
 18 48  1  0  0  0  0
 18 49  1  0  0  0  0
 19 50  1  0  0  0  0
 19 51  1  0  0  0  0
 20 52  1  0  0  0  0
 20 53  1  0  0  0  0
 20 54  1  0  0  0  0
 21 55  1  0  0  0  0
 21 56  1  0  0  0  0
 21 57  1  0  0  0  0
M  CHG  1   1   1
M  END
