23

C          0.97200        0.09453       -0.01673
N         -0.28896        0.09453       -0.01673
C          2.49200        0.09453       -0.01673
N          2.99444        0.64323       -1.34085
C          3.58972        2.04900       -1.20096
C          2.38194        2.95521       -1.32622
C          1.47050        2.27212       -2.33450
C          1.98041        0.84407       -2.48483
C          3.96687       -0.39623       -1.70276
C          5.05806       -0.48957       -0.64873
N          5.96330       -0.56701        0.22568
H          2.86648        0.71435        0.80527
H          2.78159       -0.95045        0.15654
H          4.28421        2.19809       -2.03636
H          4.12043        2.15066       -0.24972
H          1.87109        3.04131       -0.35999
H          2.65934        3.96641       -1.63889
H          0.42959        2.29595       -1.99589
H          1.50001        2.78516       -3.30235
H          1.21572        0.06300       -2.47417
H          2.53630        0.75937       -3.42726
H          3.45874       -1.35843       -1.84831
H          4.43613       -0.11857       -2.65492
