 xtb: 6.7.1 (edcfbbe)
          12202406473D

 17 16  0     0  0            999 V2000
    0.9274    0.0718   -0.0562 C   0  0  0  0  0  0  0  0  0  0  0  0
    0.4547   -1.1701    0.6922 C   0  0  0  0  0  0  0  0  0  0  0  0
    0.9084   -1.2114    2.1553 C   0  0  0  0  0  0  0  0  0  0  0  0
    0.4475   -0.0167    2.9789 C   0  0  0  0  0  0  0  0  0  0  0  0
   -1.0465    0.0542    2.9794 N   0  0  0  0  0  0  0  0  0  0  0  0
    0.4437    0.9829    0.2910 H   0  0  0  0  0  0  0  0  0  0  0  0
    0.7062   -0.0317   -1.1143 H   0  0  0  0  0  0  0  0  0  0  0  0
    2.0022    0.1905    0.0480 H   0  0  0  0  0  0  0  0  0  0  0  0
   -0.6332   -1.2652    0.6124 H   0  0  0  0  0  0  0  0  0  0  0  0
    0.8722   -2.0483    0.1999 H   0  0  0  0  0  0  0  0  0  0  0  0
    0.5597   -2.1360    2.6193 H   0  0  0  0  0  0  0  0  0  0  0  0
    1.9978   -1.2276    2.1837 H   0  0  0  0  0  0  0  0  0  0  0  0
    0.7951   -0.1044    4.0085 H   0  0  0  0  0  0  0  0  0  0  0  0
    0.8353    0.9103    2.5563 H   0  0  0  0  0  0  0  0  0  0  0  0
   -1.4387   -0.7896    3.4164 H   0  0  0  0  0  0  0  0  0  0  0  0
   -1.3927    0.8806    3.4792 H   0  0  0  0  0  0  0  0  0  0  0  0
   -1.3637    0.0855    1.9998 H   0  0  0  0  0  0  0  0  0  0  0  0
  1  2  1  0  0  0  0
  2  3  1  0  0  0  0
  3  4  1  0  0  0  0
  4  5  1  0  0  0  0
  1  6  1  0  0  0  0
  1  7  1  0  0  0  0
  1  8  1  0  0  0  0
  2  9  1  0  0  0  0
  2 10  1  0  0  0  0
  3 11  1  0  0  0  0
  3 12  1  0  0  0  0
  4 13  1  0  0  0  0
  4 14  1  0  0  0  0
  5 15  1  0  0  0  0
  5 16  1  0  0  0  0
  5 17  1  0  0  0  0
M  CHG  1   1   1
M  END
