 xtb: 6.7.1 (edcfbbe)
          12202406473D

 32 33  0     0  0            999 V2000
    1.3872   -0.2469    0.0609 C   0  0  0  0  0  0  0  0  0  0  0  0
    0.5201   -0.9277    1.1155 C   0  0  0  0  0  0  0  0  0  0  0  0
    0.7710   -0.3682    2.4256 N   0  0  0  0  0  0  0  0  0  0  0  0
    0.1565    0.7250    2.9566 C   0  0  0  0  0  0  0  0  0  0  0  0
    0.7196    0.9553    4.1743 C   0  0  0  0  0  0  0  0  0  0  0  0
    1.6796    0.0080    4.3624 N   0  0  0  0  0  0  0  0  0  0  0  0
    1.6864   -0.7867    3.2953 C   0  0  0  0  0  0  0  0  0  0  0  0
    2.4205   -0.2218    5.5770 C   0  0  0  0  0  0  0  0  0  0  0  0
    1.6520   -1.2153    6.4713 C   0  0  0  0  0  0  0  0  0  0  0  0
    1.4332   -2.5134    5.7447 C   0  0  0  0  0  0  0  0  0  0  0  0
    0.2697   -2.7232    5.0118 C   0  0  0  0  0  0  0  0  0  0  0  0
    0.0887   -3.8979    4.3006 C   0  0  0  0  0  0  0  0  0  0  0  0
    1.0717   -4.8725    4.3109 C   0  0  0  0  0  0  0  0  0  0  0  0
    2.2334   -4.6717    5.0390 C   0  0  0  0  0  0  0  0  0  0  0  0
    2.4149   -3.4970    5.7474 C   0  0  0  0  0  0  0  0  0  0  0  0
    1.1859    0.8207    0.0243 H   0  0  0  0  0  0  0  0  0  0  0  0
    1.1678   -0.6700   -0.9143 H   0  0  0  0  0  0  0  0  0  0  0  0
    2.4431   -0.3977    0.2707 H   0  0  0  0  0  0  0  0  0  0  0  0
   -0.5367   -0.7861    0.8815 H   0  0  0  0  0  0  0  0  0  0  0  0
    0.7342   -1.9976    1.1521 H   0  0  0  0  0  0  0  0  0  0  0  0
   -0.6245    1.2506    2.4462 H   0  0  0  0  0  0  0  0  0  0  0  0
    0.5099    1.7149    4.8997 H   0  0  0  0  0  0  0  0  0  0  0  0
    2.3363   -1.6274    3.1530 H   0  0  0  0  0  0  0  0  0  0  0  0
    3.3971   -0.6362    5.3198 H   0  0  0  0  0  0  0  0  0  0  0  0
    2.5566    0.7295    6.0931 H   0  0  0  0  0  0  0  0  0  0  0  0
    2.2409   -1.3789    7.3733 H   0  0  0  0  0  0  0  0  0  0  0  0
    0.6952   -0.7770    6.7589 H   0  0  0  0  0  0  0  0  0  0  0  0
   -0.5149   -1.9781    5.0241 H   0  0  0  0  0  0  0  0  0  0  0  0
   -0.8259   -4.0560    3.7490 H   0  0  0  0  0  0  0  0  0  0  0  0
    0.9277   -5.7918    3.7653 H   0  0  0  0  0  0  0  0  0  0  0  0
    2.9951   -5.4353    5.0620 H   0  0  0  0  0  0  0  0  0  0  0  0
    3.3173   -3.3491    6.3223 H   0  0  0  0  0  0  0  0  0  0  0  0
  1  2  1  0  0  0  0
  2  3  1  0  0  0  0
  3  4  4  0  0  0  0
  4  5  2  0  0  0  0
  5  6  4  0  0  0  0
  3  7  4  0  0  0  0
  6  7  4  0  0  0  0
  6  8  1  0  0  0  0
  8  9  1  0  0  0  0
  9 10  1  0  0  0  0
 10 11  4  0  0  0  0
 11 12  4  0  0  0  0
 12 13  4  0  0  0  0
 13 14  4  0  0  0  0
 10 15  4  0  0  0  0
 14 15  4  0  0  0  0
  1 16  1  0  0  0  0
  1 17  1  0  0  0  0
  1 18  1  0  0  0  0
  2 19  1  0  0  0  0
  2 20  1  0  0  0  0
  4 21  1  0  0  0  0
  5 22  1  0  0  0  0
  7 23  1  0  0  0  0
  8 24  1  0  0  0  0
  8 25  1  0  0  0  0
  9 26  1  0  0  0  0
  9 27  1  0  0  0  0
 11 28  1  0  0  0  0
 12 29  1  0  0  0  0
 13 30  1  0  0  0  0
 14 31  1  0  0  0  0
 15 32  1  0  0  0  0
M  CHG  1   1   1
M  END
