 xtb: 6.7.1 (edcfbbe)
          12202406473D

 80 79  0     0  0            999 V2000
    1.0516    0.4266   -0.7613 C   0  0  0  0  0  0  0  0  0  0  0  0
    1.1611   -0.9463   -0.1084 C   0  0  0  0  0  0  0  0  0  0  0  0
    1.6038   -0.8865    1.3546 C   0  0  0  0  0  0  0  0  0  0  0  0
    0.6627   -0.1183    2.2849 C   0  0  0  0  0  0  0  0  0  0  0  0
   -0.7701   -0.6510    2.3406 C   0  0  0  0  0  0  0  0  0  0  0  0
   -0.9051   -2.0983    2.8178 C   0  0  0  0  0  0  0  0  0  0  0  0
   -0.3783   -2.3689    4.2290 C   0  0  0  0  0  0  0  0  0  0  0  0
   -1.0013   -1.5080    5.3304 C   0  0  0  0  0  0  0  0  0  0  0  0
   -2.5273   -1.5688    5.4137 C   0  0  0  0  0  0  0  0  0  0  0  0
   -3.1017   -2.9557    5.7068 C   0  0  0  0  0  0  0  0  0  0  0  0
   -2.7328   -3.5327    7.0753 C   0  0  0  0  0  0  0  0  0  0  0  0
   -3.1430   -2.6734    8.2748 C   0  0  0  0  0  0  0  0  0  0  0  0
   -4.6131   -2.2479    8.2955 C   0  0  0  0  0  0  0  0  0  0  0  0
   -5.6123   -3.4071    8.3406 C   0  0  0  0  0  0  0  0  0  0  0  0
   -5.6945   -4.0937    9.7097 C   0  0  0  0  0  0  0  0  0  0  0  0
   -6.4080   -3.2437   10.7711 C   0  0  0  0  0  0  0  0  0  0  0  0
   -7.8090   -3.6384   11.0969 N   0  0  0  0  0  0  0  0  0  0  0  0
   -7.9082   -5.0552   11.5950 C   0  0  0  0  0  0  0  0  0  0  0  0
   -6.8074   -5.5988   12.5117 C   0  0  0  0  0  0  0  0  0  0  0  0
   -6.7526   -5.1060   13.9615 C   0  0  0  0  0  0  0  0  0  0  0  0
   -8.0286   -5.3865   14.7483 C   0  0  0  0  0  0  0  0  0  0  0  0
   -8.3729   -2.7288   12.1553 C   0  0  0  0  0  0  0  0  0  0  0  0
   -8.0194   -1.2376   12.1407 C   0  0  0  0  0  0  0  0  0  0  0  0
   -8.5700   -0.3654   11.0082 C   0  0  0  0  0  0  0  0  0  0  0  0
  -10.0923   -0.3609   10.9304 C   0  0  0  0  0  0  0  0  0  0  0  0
   -8.6509   -3.5533    9.8875 C   0  0  0  0  0  0  0  0  0  0  0  0
    0.2514    1.0119   -0.3152 H   0  0  0  0  0  0  0  0  0  0  0  0
    0.8408    0.3222   -1.8233 H   0  0  0  0  0  0  0  0  0  0  0  0
    1.9839    0.9762   -0.6504 H   0  0  0  0  0  0  0  0  0  0  0  0
    0.2032   -1.4638   -0.1865 H   0  0  0  0  0  0  0  0  0  0  0  0
    1.8952   -1.5401   -0.6588 H   0  0  0  0  0  0  0  0  0  0  0  0
    1.7246   -1.9070    1.7242 H   0  0  0  0  0  0  0  0  0  0  0  0
    2.5858   -0.4085    1.4007 H   0  0  0  0  0  0  0  0  0  0  0  0
    1.0917   -0.1299    3.2893 H   0  0  0  0  0  0  0  0  0  0  0  0
    0.6242    0.9258    1.9681 H   0  0  0  0  0  0  0  0  0  0  0  0
   -1.3507    0.0015    2.9967 H   0  0  0  0  0  0  0  0  0  0  0  0
   -1.2166   -0.5791    1.3469 H   0  0  0  0  0  0  0  0  0  0  0  0
   -1.9603   -2.3777    2.7671 H   0  0  0  0  0  0  0  0  0  0  0  0
   -0.3715   -2.7535    2.1268 H   0  0  0  0  0  0  0  0  0  0  0  0
   -0.5429   -3.4246    4.4575 H   0  0  0  0  0  0  0  0  0  0  0  0
    0.7010   -2.2067    4.2454 H   0  0  0  0  0  0  0  0  0  0  0  0
   -0.5725   -1.8135    6.2877 H   0  0  0  0  0  0  0  0  0  0  0  0
   -0.7145   -0.4667    5.1721 H   0  0  0  0  0  0  0  0  0  0  0  0
   -2.8561   -0.8672    6.1838 H   0  0  0  0  0  0  0  0  0  0  0  0
   -2.9479   -1.2220    4.4684 H   0  0  0  0  0  0  0  0  0  0  0  0
   -4.1897   -2.9054    5.6158 H   0  0  0  0  0  0  0  0  0  0  0  0
   -2.7543   -3.6529    4.9432 H   0  0  0  0  0  0  0  0  0  0  0  0
   -3.1847   -4.5243    7.1625 H   0  0  0  0  0  0  0  0  0  0  0  0
   -1.6526   -3.6766    7.1229 H   0  0  0  0  0  0  0  0  0  0  0  0
   -2.9032   -3.2236    9.1884 H   0  0  0  0  0  0  0  0  0  0  0  0
   -2.5358   -1.7673    8.2845 H   0  0  0  0  0  0  0  0  0  0  0  0
   -4.7662   -1.5893    9.1551 H   0  0  0  0  0  0  0  0  0  0  0  0
   -4.8165   -1.6573    7.4026 H   0  0  0  0  0  0  0  0  0  0  0  0
   -6.5950   -3.0332    8.0463 H   0  0  0  0  0  0  0  0  0  0  0  0
   -5.3177   -4.1496    7.6001 H   0  0  0  0  0  0  0  0  0  0  0  0
   -6.1707   -5.0668    9.5971 H   0  0  0  0  0  0  0  0  0  0  0  0
   -4.6760   -4.2846   10.0486 H   0  0  0  0  0  0  0  0  0  0  0  0
   -5.8507   -3.2523   11.7079 H   0  0  0  0  0  0  0  0  0  0  0  0
   -6.4422   -2.2167   10.4085 H   0  0  0  0  0  0  0  0  0  0  0  0
   -8.8742   -5.1533   12.0930 H   0  0  0  0  0  0  0  0  0  0  0  0
   -7.9314   -5.7003   10.7152 H   0  0  0  0  0  0  0  0  0  0  0  0
   -6.9879   -6.6761   12.5496 H   0  0  0  0  0  0  0  0  0  0  0  0
   -5.8296   -5.4658   12.0502 H   0  0  0  0  0  0  0  0  0  0  0  0
   -5.9337   -5.6436   14.4426 H   0  0  0  0  0  0  0  0  0  0  0  0
   -6.4952   -4.0457   14.0167 H   0  0  0  0  0  0  0  0  0  0  0  0
   -8.2747   -6.4441   14.7011 H   0  0  0  0  0  0  0  0  0  0  0  0
   -7.8840   -5.1220   15.7918 H   0  0  0  0  0  0  0  0  0  0  0  0
   -8.8814   -4.8200   14.3799 H   0  0  0  0  0  0  0  0  0  0  0  0
   -9.4584   -2.8335   12.1190 H   0  0  0  0  0  0  0  0  0  0  0  0
   -8.0297   -3.1137   13.1130 H   0  0  0  0  0  0  0  0  0  0  0  0
   -8.4402   -0.8517   13.0730 H   0  0  0  0  0  0  0  0  0  0  0  0
   -6.9402   -1.0990   12.2132 H   0  0  0  0  0  0  0  0  0  0  0  0
   -8.2365    0.6545   11.2080 H   0  0  0  0  0  0  0  0  0  0  0  0
   -8.1418   -0.6415   10.0417 H   0  0  0  0  0  0  0  0  0  0  0  0
  -10.5173   -0.0773   11.8898 H   0  0  0  0  0  0  0  0  0  0  0  0
  -10.4217    0.3635   10.1911 H   0  0  0  0  0  0  0  0  0  0  0  0
  -10.4977   -1.3295   10.6474 H   0  0  0  0  0  0  0  0  0  0  0  0
   -8.6894   -2.5296    9.5282 H   0  0  0  0  0  0  0  0  0  0  0  0
   -8.2497   -4.1870    9.1004 H   0  0  0  0  0  0  0  0  0  0  0  0
   -9.6626   -3.8857   10.1149 H   0  0  0  0  0  0  0  0  0  0  0  0
  1  2  1  0  0  0  0
  2  3  1  0  0  0  0
  3  4  1  0  0  0  0
  4  5  1  0  0  0  0
  5  6  1  0  0  0  0
  6  7  1  0  0  0  0
  7  8  1  0  0  0  0
  8  9  1  0  0  0  0
  9 10  1  0  0  0  0
 10 11  1  0  0  0  0
 11 12  1  0  0  0  0
 12 13  1  0  0  0  0
 13 14  1  0  0  0  0
 14 15  1  0  0  0  0
 15 16  1  0  0  0  0
 16 17  1  0  0  0  0
 17 18  1  0  0  0  0
 18 19  1  0  0  0  0
 19 20  1  0  0  0  0
 20 21  1  0  0  0  0
 17 22  1  0  0  0  0
 22 23  1  0  0  0  0
 23 24  1  0  0  0  0
 24 25  1  0  0  0  0
 17 26  1  0  0  0  0
  1 27  1  0  0  0  0
  1 28  1  0  0  0  0
  1 29  1  0  0  0  0
  2 30  1  0  0  0  0
  2 31  1  0  0  0  0
  3 32  1  0  0  0  0
  3 33  1  0  0  0  0
  4 34  1  0  0  0  0
  4 35  1  0  0  0  0
  5 36  1  0  0  0  0
  5 37  1  0  0  0  0
  6 38  1  0  0  0  0
  6 39  1  0  0  0  0
  7 40  1  0  0  0  0
  7 41  1  0  0  0  0
  8 42  1  0  0  0  0
  8 43  1  0  0  0  0
  9 44  1  0  0  0  0
  9 45  1  0  0  0  0
 10 46  1  0  0  0  0
 10 47  1  0  0  0  0
 11 48  1  0  0  0  0
 11 49  1  0  0  0  0
 12 50  1  0  0  0  0
 12 51  1  0  0  0  0
 13 52  1  0  0  0  0
 13 53  1  0  0  0  0
 14 54  1  0  0  0  0
 14 55  1  0  0  0  0
 15 56  1  0  0  0  0
 15 57  1  0  0  0  0
 16 58  1  0  0  0  0
 16 59  1  0  0  0  0
 18 60  1  0  0  0  0
 18 61  1  0  0  0  0
 19 62  1  0  0  0  0
 19 63  1  0  0  0  0
 20 64  1  0  0  0  0
 20 65  1  0  0  0  0
 21 66  1  0  0  0  0
 21 67  1  0  0  0  0
 21 68  1  0  0  0  0
 22 69  1  0  0  0  0
 22 70  1  0  0  0  0
 23 71  1  0  0  0  0
 23 72  1  0  0  0  0
 24 73  1  0  0  0  0
 24 74  1  0  0  0  0
 25 75  1  0  0  0  0
 25 76  1  0  0  0  0
 25 77  1  0  0  0  0
 26 78  1  0  0  0  0
 26 79  1  0  0  0  0
 26 80  1  0  0  0  0
M  CHG  1   1   1
M  END
