42

C          0.84186        0.60403       -0.09561
C          0.33476       -0.36768       -0.86363
C         -1.08516       -0.52979       -1.07902
C         -1.68629       -1.51966       -1.77455
C         -3.19544       -1.54944       -1.88755
N         -3.81549       -1.03178       -3.19951
C         -3.55798       -1.95287       -4.39754
C         -4.07979       -3.34688       -4.25288
C         -5.09490       -3.85674       -4.96944
C         -5.54340       -5.24206       -4.79761
C         -5.58896       -6.09211       -5.90790
C         -6.01911       -7.41339       -5.76658
C         -6.41704       -7.88934       -4.51858
C         -6.38829       -7.04539       -3.41027
C         -5.95458       -5.72518       -3.54834
C         -5.32563       -0.89372       -2.98843
C         -3.26263        0.35286       -3.53209
C         -0.94313       -2.69838       -2.35047
H          0.22327        1.32821        0.42510
H          1.91675        0.69058        0.04242
H          1.03050       -1.05223       -1.34253
H         -1.69975        0.24965       -0.62547
H         -3.58071       -2.55975       -1.70834
H         -3.62942       -0.92649       -1.09310
H         -4.01280       -1.46213       -5.26817
H         -2.47980       -1.97215       -4.57825
H         -3.55827       -3.99734       -3.55422
H         -5.61763       -3.28181       -5.73047
H         -5.28203       -5.74229       -6.89090
H         -6.04492       -8.07321       -6.63086
H         -6.75394       -8.91803       -4.41133
H         -6.70845       -7.41740       -2.43986
H         -5.95246       -5.08233       -2.67274
H         -5.49932       -0.13005       -2.22377
H         -5.78478       -0.58962       -3.93395
H         -5.72743       -1.85372       -2.65249
H         -3.40202        1.00231       -2.66274
H         -2.20322        0.26284       -3.78751
H         -3.81605        0.74879       -4.38953
H         -0.69171       -2.52189       -3.39961
H         -0.01673       -2.91665       -1.81155
H         -1.54635       -3.60908       -2.28344
