 xtb: 6.7.1 (edcfbbe)
          12202406473D

 47 46  0     0  0            999 V2000
    0.9845   -0.0142   -0.5553 C   0  0  0  0  0  0  0  0  0  0  0  0
    0.9093   -1.5266   -0.3828 C   0  0  0  0  0  0  0  0  0  0  0  0
    1.2398   -1.9886    1.0372 C   0  0  0  0  0  0  0  0  0  0  0  0
    0.2943   -1.4671    2.1212 C   0  0  0  0  0  0  0  0  0  0  0  0
   -1.1718   -1.8687    1.9486 C   0  0  0  0  0  0  0  0  0  0  0  0
   -1.4312   -3.3767    1.9291 C   0  0  0  0  0  0  0  0  0  0  0  0
   -0.9462   -4.1310    3.1692 C   0  0  0  0  0  0  0  0  0  0  0  0
   -1.5239   -3.6313    4.4949 C   0  0  0  0  0  0  0  0  0  0  0  0
   -3.0492   -3.6953    4.5994 C   0  0  0  0  0  0  0  0  0  0  0  0
   -3.6436   -5.0989    4.4582 C   0  0  0  0  0  0  0  0  0  0  0  0
   -3.1336   -6.1144    5.4821 C   0  0  0  0  0  0  0  0  0  0  0  0
   -3.3583   -5.7193    6.9402 C   0  0  0  0  0  0  0  0  0  0  0  0
   -4.8345   -5.4668    7.2661 C   0  0  0  0  0  0  0  0  0  0  0  0
   -5.9064   -6.8244    6.7282 P   0  0  0  0  0  0  0  0  0  0  0  0
   -5.4690   -8.4196    7.4394 C   0  0  0  0  0  0  0  0  0  0  0  0
    0.2108    0.4873    0.0207 H   0  0  0  0  0  0  0  0  0  0  0  0
    0.8510    0.2522   -1.6011 H   0  0  0  0  0  0  0  0  0  0  0  0
    1.9533    0.3578   -0.2291 H   0  0  0  0  0  0  0  0  0  0  0  0
   -0.0845   -1.8770   -0.6677 H   0  0  0  0  0  0  0  0  0  0  0  0
    1.6244   -1.9940   -1.0640 H   0  0  0  0  0  0  0  0  0  0  0  0
    1.2492   -3.0806    1.0571 H   0  0  0  0  0  0  0  0  0  0  0  0
    2.2503   -1.6531    1.2837 H   0  0  0  0  0  0  0  0  0  0  0  0
    0.6563   -1.8201    3.0895 H   0  0  0  0  0  0  0  0  0  0  0  0
    0.3461   -0.3772    2.1428 H   0  0  0  0  0  0  0  0  0  0  0  0
   -1.7496   -1.4104    2.7550 H   0  0  0  0  0  0  0  0  0  0  0  0
   -1.5487   -1.4502    1.0139 H   0  0  0  0  0  0  0  0  0  0  0  0
   -2.5042   -3.5387    1.7982 H   0  0  0  0  0  0  0  0  0  0  0  0
   -0.9381   -3.8112    1.0581 H   0  0  0  0  0  0  0  0  0  0  0  0
   -1.1796   -5.1911    3.0413 H   0  0  0  0  0  0  0  0  0  0  0  0
    0.1402   -4.0528    3.2282 H   0  0  0  0  0  0  0  0  0  0  0  0
   -1.0740   -4.2067    5.3074 H   0  0  0  0  0  0  0  0  0  0  0  0
   -1.2244   -2.5930    4.6405 H   0  0  0  0  0  0  0  0  0  0  0  0
   -3.3482   -3.2599    5.5562 H   0  0  0  0  0  0  0  0  0  0  0  0
   -3.4827   -3.0695    3.8187 H   0  0  0  0  0  0  0  0  0  0  0  0
   -4.7359   -5.0204    4.5209 H   0  0  0  0  0  0  0  0  0  0  0  0
   -3.4123   -5.4797    3.4630 H   0  0  0  0  0  0  0  0  0  0  0  0
   -3.6254   -7.0812    5.2958 H   0  0  0  0  0  0  0  0  0  0  0  0
   -2.0659   -6.2684    5.3281 H   0  0  0  0  0  0  0  0  0  0  0  0
   -2.9672   -6.5067    7.5881 H   0  0  0  0  0  0  0  0  0  0  0  0
   -2.7999   -4.8113    7.1657 H   0  0  0  0  0  0  0  0  0  0  0  0
   -4.9769   -5.3528    8.3470 H   0  0  0  0  0  0  0  0  0  0  0  0
   -5.1895   -4.5515    6.7828 H   0  0  0  0  0  0  0  0  0  0  0  0
   -7.1920   -6.5260    7.1213 H   0  0  0  0  0  0  0  0  0  0  0  0
   -5.9885   -6.9246    5.3628 H   0  0  0  0  0  0  0  0  0  0  0  0
   -5.4723   -8.3426    8.5283 H   0  0  0  0  0  0  0  0  0  0  0  0
   -6.1931   -9.1755    7.1332 H   0  0  0  0  0  0  0  0  0  0  0  0
   -4.4751   -8.7223    7.1071 H   0  0  0  0  0  0  0  0  0  0  0  0
  1  2  1  0  0  0  0
  2  3  1  0  0  0  0
  3  4  1  0  0  0  0
  4  5  1  0  0  0  0
  5  6  1  0  0  0  0
  6  7  1  0  0  0  0
  7  8  1  0  0  0  0
  8  9  1  0  0  0  0
  9 10  1  0  0  0  0
 10 11  1  0  0  0  0
 11 12  1  0  0  0  0
 12 13  1  0  0  0  0
 13 14  1  0  0  0  0
 14 15  1  0  0  0  0
  1 16  1  0  0  0  0
  1 17  1  0  0  0  0
  1 18  1  0  0  0  0
  2 19  1  0  0  0  0
  2 20  1  0  0  0  0
  3 21  1  0  0  0  0
  3 22  1  0  0  0  0
  4 23  1  0  0  0  0
  4 24  1  0  0  0  0
  5 25  1  0  0  0  0
  5 26  1  0  0  0  0
  6 27  1  0  0  0  0
  6 28  1  0  0  0  0
  7 29  1  0  0  0  0
  7 30  1  0  0  0  0
  8 31  1  0  0  0  0
  8 32  1  0  0  0  0
  9 33  1  0  0  0  0
  9 34  1  0  0  0  0
 10 35  1  0  0  0  0
 10 36  1  0  0  0  0
 11 37  1  0  0  0  0
 11 38  1  0  0  0  0
 12 39  1  0  0  0  0
 12 40  1  0  0  0  0
 13 41  1  0  0  0  0
 13 42  1  0  0  0  0
 14 43  1  0  0  0  0
 14 44  1  0  0  0  0
 15 45  1  0  0  0  0
 15 46  1  0  0  0  0
 15 47  1  0  0  0  0
M  CHG  1   1   1
M  END
