 xtb: 6.7.1 (edcfbbe)
          12202406473D

 24 24  0     0  0            999 V2000
    0.4785    0.7802   -0.5627 Br  0  0  0  0  0  0  0  0  0  0  0  0
    2.2732    0.2884    0.0766 C   0  0  0  0  0  0  0  0  0  0  0  0
    3.2925    0.2505   -1.0526 C   0  0  0  0  0  0  0  0  0  0  0  0
    3.3621    1.5421   -1.8778 C   0  0  0  0  0  0  0  0  0  0  0  0
    3.6440    2.7096   -1.0584 N   0  0  0  0  0  0  0  0  0  0  0  0
    2.6714    3.5792   -0.7562 C   0  0  0  0  0  0  0  0  0  0  0  0
    2.9138    4.6717    0.0437 C   0  0  0  0  0  0  0  0  0  0  0  0
    4.1918    4.9005    0.5624 C   0  0  0  0  0  0  0  0  0  0  0  0
    5.1840    3.9714    0.2228 C   0  0  0  0  0  0  0  0  0  0  0  0
    4.8831    2.8998   -0.5808 C   0  0  0  0  0  0  0  0  0  0  0  0
    4.4933    6.0745    1.4091 C   0  0  0  0  0  0  0  0  0  0  0  0
    2.5332    1.0161    0.8452 H   0  0  0  0  0  0  0  0  0  0  0  0
    2.1759   -0.6943    0.5340 H   0  0  0  0  0  0  0  0  0  0  0  0
    4.2668    0.0223   -0.6140 H   0  0  0  0  0  0  0  0  0  0  0  0
    3.0403   -0.5552   -1.7438 H   0  0  0  0  0  0  0  0  0  0  0  0
    4.1457    1.4409   -2.6320 H   0  0  0  0  0  0  0  0  0  0  0  0
    2.4076    1.6950   -2.3846 H   0  0  0  0  0  0  0  0  0  0  0  0
    1.6873    3.3861   -1.1581 H   0  0  0  0  0  0  0  0  0  0  0  0
    2.1053    5.3507    0.2647 H   0  0  0  0  0  0  0  0  0  0  0  0
    6.1916    4.0947    0.5878 H   0  0  0  0  0  0  0  0  0  0  0  0
    5.6350    2.1766   -0.8606 H   0  0  0  0  0  0  0  0  0  0  0  0
    4.9561    6.8509    0.7967 H   0  0  0  0  0  0  0  0  0  0  0  0
    3.5922    6.4916    1.8498 H   0  0  0  0  0  0  0  0  0  0  0  0
    5.2038    5.8218    2.1930 H   0  0  0  0  0  0  0  0  0  0  0  0
  1  2  1  0  0  0  0
  2  3  1  0  0  0  0
  3  4  1  0  0  0  0
  4  5  1  0  0  0  0
  5  6  4  0  0  0  0
  6  7  4  0  0  0  0
  7  8  4  0  0  0  0
  8  9  4  0  0  0  0
  5 10  4  0  0  0  0
  9 10  2  0  0  0  0
  8 11  1  0  0  0  0
  2 12  1  0  0  0  0
  2 13  1  0  0  0  0
  3 14  1  0  0  0  0
  3 15  1  0  0  0  0
  4 16  1  0  0  0  0
  4 17  1  0  0  0  0
  6 18  1  0  0  0  0
  7 19  1  0  0  0  0
  9 20  1  0  0  0  0
 10 21  1  0  0  0  0
 11 22  1  0  0  0  0
 11 23  1  0  0  0  0
 11 24  1  0  0  0  0
M  CHG  1   1   1
M  END
