59

C         -0.20738       -0.11936       -0.70983
C         -0.40196       -0.91470       -1.99487
C         -0.35686       -0.91655        0.60035
C          0.49972       -0.39983        1.80911
N          0.47652        1.08352        2.24036
C         -0.96034        1.61926        2.29381
C          0.98194        1.14832        3.69745
C          1.30659        2.05196        1.35035
C          2.83128        2.18173        1.60559
C          3.72516        0.93426        1.38415
C          3.66266        0.13087        0.07874
C          4.05666        0.81144       -1.22772
C          5.50546        1.26524       -1.26663
C          3.39916        3.39876        0.82354
C          2.90213        4.75266        1.32091
C         -1.83086       -1.16710        1.01914
C         -2.67854       -2.11157        0.15618
C         -2.08841       -3.49291       -0.13071
C         -1.81946       -4.30852        1.12334
H         -0.87434        0.74845       -0.71789
H          0.81165        0.25455       -0.78724
H          0.21947       -1.81560       -1.99804
H         -1.43965       -1.19933       -2.16233
H         -0.09892       -0.30393       -2.85272
H          0.07754       -1.90686        0.40937
H          0.19657       -0.97260        2.69596
H          1.54578       -0.65762        1.65314
H         -1.56998        0.92602        2.87958
H         -0.94942        2.59805        2.78573
H         -1.33197        1.73249        1.27458
H          1.95716        0.66145        3.75702
H          1.04370        2.19878        3.99792
H          0.26832        0.61752        4.33603
H          1.09411        1.83741        0.30800
H          0.86072        3.03323        1.54522
H          2.96913        2.44599        2.66235
H          4.77027        1.22472        1.55555
H          3.51352        0.22810        2.19616
H          4.31580       -0.74331        0.20818
H          2.66677       -0.28690       -0.05288
H          3.91002        0.08722       -2.03965
H          3.38478        1.64226       -1.45368
H          6.18225        0.42500       -1.08119
H          5.74215        1.67596       -2.25340
H          5.71035        2.03986       -0.52460
H          4.49170        3.40722        0.90930
H          3.15604        3.32355       -0.23911
H          3.05955        4.86110        2.39811
H          3.44989        5.55599        0.81671
H          1.84085        4.90197        1.10470
H         -1.84766       -1.56107        2.04315
H         -2.37210       -0.21697        1.05493
H         -3.64298       -2.24879        0.66348
H         -2.92862       -1.62052       -0.78856
H         -2.79779       -4.04516       -0.75918
H         -1.16711       -3.40956       -0.71478
H         -2.72888       -4.41716        1.72244
H         -1.47208       -5.31037        0.85088
H         -1.04732       -3.84619        1.74504
