 xtb: 6.7.1 (edcfbbe)
          12202406473D

 26 25  0     0  0            999 V2000
    1.1600   -0.0862    0.0729 C   0  0  0  0  0  0  0  0  0  0  0  0
    0.5623   -0.2429    1.4681 C   0  0  0  0  0  0  0  0  0  0  0  0
    0.9019    0.9217    2.3954 C   0  0  0  0  0  0  0  0  0  0  0  0
    0.4967    2.2434    1.8448 N   0  0  0  0  0  0  0  0  0  0  0  0
   -0.9823    2.4127    1.7226 C   0  0  0  0  0  0  0  0  0  0  0  0
   -1.7178    2.4104    3.0514 C   0  0  0  0  0  0  0  0  0  0  0  0
    1.1407    3.3695    2.5802 C   0  0  0  0  0  0  0  0  0  0  0  0
    2.5703    3.5973    2.1196 C   0  0  0  0  0  0  0  0  0  0  0  0
    0.6748    0.7026   -0.5015 H   0  0  0  0  0  0  0  0  0  0  0  0
    1.0269   -1.0089   -0.4840 H   0  0  0  0  0  0  0  0  0  0  0  0
    2.2280    0.1148    0.1255 H   0  0  0  0  0  0  0  0  0  0  0  0
   -0.5162   -0.3871    1.3991 H   0  0  0  0  0  0  0  0  0  0  0  0
    0.9714   -1.1423    1.9297 H   0  0  0  0  0  0  0  0  0  0  0  0
    0.4269    0.7907    3.3677 H   0  0  0  0  0  0  0  0  0  0  0  0
    1.9828    0.9479    2.5436 H   0  0  0  0  0  0  0  0  0  0  0  0
    0.8707    2.2633    0.8873 H   0  0  0  0  0  0  0  0  0  0  0  0
   -1.1585    3.3600    1.2079 H   0  0  0  0  0  0  0  0  0  0  0  0
   -1.3631    1.6103    1.0896 H   0  0  0  0  0  0  0  0  0  0  0  0
   -1.3611    3.1920    3.7154 H   0  0  0  0  0  0  0  0  0  0  0  0
   -2.7704    2.5976    2.8573 H   0  0  0  0  0  0  0  0  0  0  0  0
   -1.6476    1.4521    3.5570 H   0  0  0  0  0  0  0  0  0  0  0  0
    0.5577    4.2737    2.3964 H   0  0  0  0  0  0  0  0  0  0  0  0
    1.1110    3.1486    3.6479 H   0  0  0  0  0  0  0  0  0  0  0  0
    2.6087    3.8245    1.0562 H   0  0  0  0  0  0  0  0  0  0  0  0
    2.9832    4.4485    2.6537 H   0  0  0  0  0  0  0  0  0  0  0  0
    3.2122    2.7442    2.3216 H   0  0  0  0  0  0  0  0  0  0  0  0
  1  2  1  0  0  0  0
  2  3  1  0  0  0  0
  3  4  1  0  0  0  0
  4  5  1  0  0  0  0
  5  6  1  0  0  0  0
  4  7  1  0  0  0  0
  7  8  1  0  0  0  0
  1  9  1  0  0  0  0
  1 10  1  0  0  0  0
  1 11  1  0  0  0  0
  2 12  1  0  0  0  0
  2 13  1  0  0  0  0
  3 14  1  0  0  0  0
  3 15  1  0  0  0  0
  4 16  1  0  0  0  0
  5 17  1  0  0  0  0
  5 18  1  0  0  0  0
  6 19  1  0  0  0  0
  6 20  1  0  0  0  0
  6 21  1  0  0  0  0
  7 22  1  0  0  0  0
  7 23  1  0  0  0  0
  8 24  1  0  0  0  0
  8 25  1  0  0  0  0
  8 26  1  0  0  0  0
M  CHG  1   1   1
M  END
