 xtb: 6.7.1 (edcfbbe)
          12202406473D

 44 46  0     0  0            999 V2000
    1.6068    0.2096    0.6540 C   0  0  0  0  0  0  0  0  0  0  0  0
    0.7556    0.5887    1.8716 C   0  0  0  0  0  0  0  0  0  0  0  0
    1.1120    1.9325    2.3729 C   0  0  0  0  0  0  0  0  0  0  0  0
    1.7228    2.2278    3.5266 N   0  0  0  0  0  0  0  0  0  0  0  0
    1.9092    3.5714    3.6222 C   0  0  0  0  0  0  0  0  0  0  0  0
    1.4100    4.1195    2.4789 C   0  0  0  0  0  0  0  0  0  0  0  0
    0.9213    3.0935    1.7333 N   0  0  0  0  0  0  0  0  0  0  0  0
    0.3484    3.1384    0.5018 O   0  0  0  0  0  0  0  0  0  0  0  0
   -0.4605    4.2891    0.2368 C   0  0  0  0  0  0  0  0  0  0  0  0
   -1.4887    4.5620    1.3017 C   0  0  0  0  0  0  0  0  0  0  0  0
   -1.5231    5.7663    2.0065 C   0  0  0  0  0  0  0  0  0  0  0  0
   -0.3613    7.0127    1.6815 Cl  0  0  0  0  0  0  0  0  0  0  0  0
   -2.4870    6.0116    2.9717 C   0  0  0  0  0  0  0  0  0  0  0  0
   -3.4334    5.0436    3.2563 C   0  0  0  0  0  0  0  0  0  0  0  0
   -3.4219    3.8363    2.5815 C   0  0  0  0  0  0  0  0  0  0  0  0
   -2.4583    3.6056    1.6127 C   0  0  0  0  0  0  0  0  0  0  0  0
   -2.4746    2.1018    0.7627 Cl  0  0  0  0  0  0  0  0  0  0  0  0
    2.0124    1.2619    4.4395 O   0  0  0  0  0  0  0  0  0  0  0  0
    3.1308    1.5215    5.2906 C   0  0  0  0  0  0  0  0  0  0  0  0
    4.4006    1.8413    4.5471 C   0  0  0  0  0  0  0  0  0  0  0  0
    4.9353    0.9274    3.6356 C   0  0  0  0  0  0  0  0  0  0  0  0
    4.1188   -0.5687    3.3533 Cl  0  0  0  0  0  0  0  0  0  0  0  0
    6.1162    1.1856    2.9577 C   0  0  0  0  0  0  0  0  0  0  0  0
    6.7895    2.3714    3.1893 C   0  0  0  0  0  0  0  0  0  0  0  0
    6.2844    3.2982    4.0837 C   0  0  0  0  0  0  0  0  0  0  0  0
    5.0985    3.0326    4.7498 C   0  0  0  0  0  0  0  0  0  0  0  0
    4.5077    4.2224    5.8665 Cl  0  0  0  0  0  0  0  0  0  0  0  0
    1.4472    0.9133   -0.1578 H   0  0  0  0  0  0  0  0  0  0  0  0
    1.3224   -0.7808    0.3138 H   0  0  0  0  0  0  0  0  0  0  0  0
    2.6620    0.1956    0.9125 H   0  0  0  0  0  0  0  0  0  0  0  0
   -0.2974    0.5892    1.5809 H   0  0  0  0  0  0  0  0  0  0  0  0
    0.9051   -0.1304    2.6767 H   0  0  0  0  0  0  0  0  0  0  0  0
    2.3847    4.0479    4.4559 H   0  0  0  0  0  0  0  0  0  0  0  0
    1.3622    5.1467    2.1783 H   0  0  0  0  0  0  0  0  0  0  0  0
    0.1682    5.1688    0.0728 H   0  0  0  0  0  0  0  0  0  0  0  0
   -0.9445    4.0145   -0.7042 H   0  0  0  0  0  0  0  0  0  0  0  0
   -2.4954    6.9560    3.4917 H   0  0  0  0  0  0  0  0  0  0  0  0
   -4.1868    5.2340    4.0036 H   0  0  0  0  0  0  0  0  0  0  0  0
   -4.1599    3.0796    2.7935 H   0  0  0  0  0  0  0  0  0  0  0  0
    2.8924    2.3115    6.0084 H   0  0  0  0  0  0  0  0  0  0  0  0
    3.2304    0.5724    5.8243 H   0  0  0  0  0  0  0  0  0  0  0  0
    6.5068    0.4565    2.2664 H   0  0  0  0  0  0  0  0  0  0  0  0
    7.7153    2.5728    2.6749 H   0  0  0  0  0  0  0  0  0  0  0  0
    6.8079    4.2222    4.2697 H   0  0  0  0  0  0  0  0  0  0  0  0
  1  2  1  0  0  0  0
  2  3  1  0  0  0  0
  3  4  4  0  0  0  0
  4  5  4  0  0  0  0
  5  6  2  0  0  0  0
  3  7  4  0  0  0  0
  6  7  4  0  0  0  0
  7  8  1  0  0  0  0
  8  9  1  0  0  0  0
  9 10  1  0  0  0  0
 10 11  4  0  0  0  0
 11 12  1  0  0  0  0
 11 13  4  0  0  0  0
 13 14  4  0  0  0  0
 14 15  4  0  0  0  0
 10 16  4  0  0  0  0
 15 16  4  0  0  0  0
 16 17  1  0  0  0  0
  4 18  1  0  0  0  0
 18 19  1  0  0  0  0
 19 20  1  0  0  0  0
 20 21  4  0  0  0  0
 21 22  1  0  0  0  0
 21 23  4  0  0  0  0
 23 24  4  0  0  0  0
 24 25  4  0  0  0  0
 20 26  4  0  0  0  0
 25 26  4  0  0  0  0
 26 27  1  0  0  0  0
  1 28  1  0  0  0  0
  1 29  1  0  0  0  0
  1 30  1  0  0  0  0
  2 31  1  0  0  0  0
  2 32  1  0  0  0  0
  5 33  1  0  0  0  0
  6 34  1  0  0  0  0
  9 35  1  0  0  0  0
  9 36  1  0  0  0  0
 13 37  1  0  0  0  0
 14 38  1  0  0  0  0
 15 39  1  0  0  0  0
 19 40  1  0  0  0  0
 19 41  1  0  0  0  0
 23 42  1  0  0  0  0
 24 43  1  0  0  0  0
 25 44  1  0  0  0  0
M  CHG  1   1   1
M  END
