 xtb: 6.7.1 (edcfbbe)
          12202406473D

 22 22  0     0  0            999 V2000
    1.3305    0.6378    0.3220 N   0  0  0  0  0  0  0  0  0  0  0  0
    2.4221    0.3203    0.2247 C   0  0  0  0  0  0  0  0  0  0  0  0
    3.8195    0.0057    0.0335 C   0  0  0  0  0  0  0  0  0  0  0  0
    4.3195    0.6111   -1.2917 C   0  0  0  0  0  0  0  0  0  0  0  0
    4.0108    2.0329   -1.3463 N   0  0  0  0  0  0  0  0  0  0  0  0
    2.8484    2.4358   -1.8683 C   0  0  0  0  0  0  0  0  0  0  0  0
    2.4992    3.7726   -1.8540 C   0  0  0  0  0  0  0  0  0  0  0  0
    3.3634    4.6968   -1.2941 C   0  0  0  0  0  0  0  0  0  0  0  0
    4.5814    4.2708   -0.7523 C   0  0  0  0  0  0  0  0  0  0  0  0
    4.8590    2.9141   -0.7997 C   0  0  0  0  0  0  0  0  0  0  0  0
    5.5361    5.2352   -0.1469 C   0  0  0  0  0  0  0  0  0  0  0  0
    4.3839    0.3968    0.8840 H   0  0  0  0  0  0  0  0  0  0  0  0
    3.9436   -1.0789    0.0078 H   0  0  0  0  0  0  0  0  0  0  0  0
    5.3986    0.4684   -1.3762 H   0  0  0  0  0  0  0  0  0  0  0  0
    3.8311    0.1124   -2.1318 H   0  0  0  0  0  0  0  0  0  0  0  0
    2.1981    1.6867   -2.2933 H   0  0  0  0  0  0  0  0  0  0  0  0
    1.5562    4.0778   -2.2778 H   0  0  0  0  0  0  0  0  0  0  0  0
    3.1058    5.7448   -1.2735 H   0  0  0  0  0  0  0  0  0  0  0  0
    5.7823    2.5238   -0.3957 H   0  0  0  0  0  0  0  0  0  0  0  0
    5.8081    5.9995   -0.8731 H   0  0  0  0  0  0  0  0  0  0  0  0
    5.0678    5.7460    0.6934 H   0  0  0  0  0  0  0  0  0  0  0  0
    6.4398    4.7446    0.2013 H   0  0  0  0  0  0  0  0  0  0  0  0
  1  2  3  0  0  0  0
  2  3  1  0  0  0  0
  3  4  1  0  0  0  0
  4  5  1  0  0  0  0
  5  6  4  0  0  0  0
  6  7  4  0  0  0  0
  7  8  4  0  0  0  0
  8  9  4  0  0  0  0
  5 10  4  0  0  0  0
  9 10  4  0  0  0  0
  9 11  1  0  0  0  0
  3 12  1  0  0  0  0
  3 13  1  0  0  0  0
  4 14  1  0  0  0  0
  4 15  1  0  0  0  0
  6 16  1  0  0  0  0
  7 17  1  0  0  0  0
  8 18  1  0  0  0  0
 10 19  1  0  0  0  0
 11 20  1  0  0  0  0
 11 21  1  0  0  0  0
 11 22  1  0  0  0  0
M  CHG  1   1   1
M  END
