 xtb: 6.7.1 (edcfbbe)
          12202406473D

 53 52  0     0  0            999 V2000
   -0.1624   -0.4027    0.7689 C   0  0  0  0  0  0  0  0  0  0  0  0
   -0.3488    0.4417   -0.4857 C   0  0  0  0  0  0  0  0  0  0  0  0
    0.7363    0.2084   -1.5386 C   0  0  0  0  0  0  0  0  0  0  0  0
    0.8233   -1.2226   -2.0767 C   0  0  0  0  0  0  0  0  0  0  0  0
   -0.4583   -1.7442   -2.7392 C   0  0  0  0  0  0  0  0  0  0  0  0
   -0.8911   -0.9661   -3.9908 C   0  0  0  0  0  0  0  0  0  0  0  0
   -0.6266   -1.6176   -5.3064 N   0  0  0  0  0  0  0  0  0  0  0  0
   -1.2828   -2.9712   -5.4045 C   0  0  0  0  0  0  0  0  0  0  0  0
   -2.6786   -3.1664   -4.8023 C   0  0  0  0  0  0  0  0  0  0  0  0
   -3.8852   -2.5655   -5.5309 C   0  0  0  0  0  0  0  0  0  0  0  0
   -4.0748   -3.0347   -6.9771 C   0  0  0  0  0  0  0  0  0  0  0  0
   -4.2288   -4.5481   -7.1481 C   0  0  0  0  0  0  0  0  0  0  0  0
   -5.4338   -5.1210   -6.4121 C   0  0  0  0  0  0  0  0  0  0  0  0
   -1.1581   -0.7660   -6.4284 C   0  0  0  0  0  0  0  0  0  0  0  0
   -1.1646    0.7459   -6.2409 C   0  0  0  0  0  0  0  0  0  0  0  0
    0.8389   -1.8657   -5.4973 C   0  0  0  0  0  0  0  0  0  0  0  0
    1.7264   -0.6437   -5.6707 C   0  0  0  0  0  0  0  0  0  0  0  0
   -0.2960   -1.4619    0.5631 H   0  0  0  0  0  0  0  0  0  0  0  0
   -0.8896   -0.1142    1.5230 H   0  0  0  0  0  0  0  0  0  0  0  0
    0.8321   -0.2536    1.1819 H   0  0  0  0  0  0  0  0  0  0  0  0
   -1.3371    0.2554   -0.9121 H   0  0  0  0  0  0  0  0  0  0  0  0
   -0.3163    1.4960   -0.2054 H   0  0  0  0  0  0  0  0  0  0  0  0
    0.5807    0.9151   -2.3587 H   0  0  0  0  0  0  0  0  0  0  0  0
    1.7037    0.4495   -1.0943 H   0  0  0  0  0  0  0  0  0  0  0  0
    1.6629   -1.2765   -2.7724 H   0  0  0  0  0  0  0  0  0  0  0  0
    1.0576   -1.8890   -1.2465 H   0  0  0  0  0  0  0  0  0  0  0  0
   -0.3282   -2.8040   -2.9561 H   0  0  0  0  0  0  0  0  0  0  0  0
   -1.2614   -1.6774   -2.0051 H   0  0  0  0  0  0  0  0  0  0  0  0
   -1.9615   -0.7653   -3.9546 H   0  0  0  0  0  0  0  0  0  0  0  0
   -0.3758   -0.0080   -3.9932 H   0  0  0  0  0  0  0  0  0  0  0  0
   -1.3060   -3.2387   -6.4623 H   0  0  0  0  0  0  0  0  0  0  0  0
   -0.6229   -3.6830   -4.9056 H   0  0  0  0  0  0  0  0  0  0  0  0
   -2.8210   -4.2486   -4.7796 H   0  0  0  0  0  0  0  0  0  0  0  0
   -2.6943   -2.8370   -3.7641 H   0  0  0  0  0  0  0  0  0  0  0  0
   -4.7696   -2.8561   -4.9628 H   0  0  0  0  0  0  0  0  0  0  0  0
   -3.8567   -1.4732   -5.5056 H   0  0  0  0  0  0  0  0  0  0  0  0
   -4.9754   -2.5529   -7.3625 H   0  0  0  0  0  0  0  0  0  0  0  0
   -3.2437   -2.7010   -7.6052 H   0  0  0  0  0  0  0  0  0  0  0  0
   -4.3438   -4.7489   -8.2149 H   0  0  0  0  0  0  0  0  0  0  0  0
   -3.3217   -5.0620   -6.8217 H   0  0  0  0  0  0  0  0  0  0  0  0
   -6.3399   -4.5919   -6.6967 H   0  0  0  0  0  0  0  0  0  0  0  0
   -5.5592   -6.1698   -6.6674 H   0  0  0  0  0  0  0  0  0  0  0  0
   -5.3164   -5.0516   -5.3335 H   0  0  0  0  0  0  0  0  0  0  0  0
   -0.5767   -1.0188   -7.3171 H   0  0  0  0  0  0  0  0  0  0  0  0
   -2.1868   -1.0707   -6.6058 H   0  0  0  0  0  0  0  0  0  0  0  0
   -0.1910    1.1612   -6.0068 H   0  0  0  0  0  0  0  0  0  0  0  0
   -1.4865    1.1819   -7.1843 H   0  0  0  0  0  0  0  0  0  0  0  0
   -1.8755    1.0610   -5.4825 H   0  0  0  0  0  0  0  0  0  0  0  0
    1.1854   -2.4325   -4.6326 H   0  0  0  0  0  0  0  0  0  0  0  0
    0.9459   -2.4999   -6.3807 H   0  0  0  0  0  0  0  0  0  0  0  0
    1.6538    0.0473   -4.8361 H   0  0  0  0  0  0  0  0  0  0  0  0
    2.7558   -0.9926   -5.7130 H   0  0  0  0  0  0  0  0  0  0  0  0
    1.5273   -0.1157   -6.5980 H   0  0  0  0  0  0  0  0  0  0  0  0
  1  2  1  0  0  0  0
  2  3  1  0  0  0  0
  3  4  1  0  0  0  0
  4  5  1  0  0  0  0
  5  6  1  0  0  0  0
  6  7  1  0  0  0  0
  7  8  1  0  0  0  0
  8  9  1  0  0  0  0
  9 10  1  0  0  0  0
 10 11  1  0  0  0  0
 11 12  1  0  0  0  0
 12 13  1  0  0  0  0
  7 14  1  0  0  0  0
 14 15  1  0  0  0  0
  7 16  1  0  0  0  0
 16 17  1  0  0  0  0
  1 18  1  0  0  0  0
  1 19  1  0  0  0  0
  1 20  1  0  0  0  0
  2 21  1  0  0  0  0
  2 22  1  0  0  0  0
  3 23  1  0  0  0  0
  3 24  1  0  0  0  0
  4 25  1  0  0  0  0
  4 26  1  0  0  0  0
  5 27  1  0  0  0  0
  5 28  1  0  0  0  0
  6 29  1  0  0  0  0
  6 30  1  0  0  0  0
  8 31  1  0  0  0  0
  8 32  1  0  0  0  0
  9 33  1  0  0  0  0
  9 34  1  0  0  0  0
 10 35  1  0  0  0  0
 10 36  1  0  0  0  0
 11 37  1  0  0  0  0
 11 38  1  0  0  0  0
 12 39  1  0  0  0  0
 12 40  1  0  0  0  0
 13 41  1  0  0  0  0
 13 42  1  0  0  0  0
 13 43  1  0  0  0  0
 14 44  1  0  0  0  0
 14 45  1  0  0  0  0
 15 46  1  0  0  0  0
 15 47  1  0  0  0  0
 15 48  1  0  0  0  0
 16 49  1  0  0  0  0
 16 50  1  0  0  0  0
 17 51  1  0  0  0  0
 17 52  1  0  0  0  0
 17 53  1  0  0  0  0
M  CHG  1   1   1
M  END
