53

C          0.54561       -0.02704        0.84509
C          0.43576        0.65569       -0.50892
C          1.16225       -0.09474       -1.62638
C          0.60739       -1.48216       -1.97155
C         -0.84421       -1.52926       -2.46580
C         -1.18942       -0.73445       -3.73368
N         -0.95649       -1.44445       -5.09714
C         -1.65788       -2.85991       -5.14682
C         -3.15791       -2.92015       -4.82466
C         -4.16325       -2.66985       -5.96027
C         -3.90346       -3.39619       -7.28440
C         -3.89057       -4.92363       -7.20369
C         -5.25687       -5.51548       -6.89364
C         -1.58040       -0.59111       -6.23327
C         -0.94642        0.76439       -6.48899
C          0.53456       -1.76833       -5.39215
C          1.52255       -0.61905       -5.29499
H          0.02342       -0.98786        0.85385
H          0.09821        0.60302        1.62054
H          1.59303       -0.19862        1.11375
H         -0.61821        0.80562       -0.76491
H          0.87854        1.65595       -0.42564
H          1.16320        0.53933       -2.51708
H          2.21656       -0.21033       -1.34375
H          1.26958       -1.94446       -2.70700
H          0.68163       -2.12151       -1.08314
H         -1.14945       -2.57506       -2.55299
H         -1.47363       -1.13071       -1.65939
H         -2.25776       -0.49171       -3.70747
H         -0.66871        0.22286       -3.75330
H         -1.43877       -3.28319       -6.13213
H         -1.12310       -3.48588       -4.42399
H         -3.35220       -3.93974       -4.46351
H         -3.41274       -2.27665       -3.97787
H         -5.15950       -2.94624       -5.59233
H         -4.23745       -1.59923       -6.16702
H         -4.67359       -3.08698       -8.00273
H         -2.95354       -3.05752       -7.71108
H         -3.55897       -5.31615       -8.17277
H         -3.16159       -5.26818       -6.46291
H         -6.00148       -5.18523       -7.62535
H         -5.21050       -6.60856       -6.93160
H         -5.60179       -5.22983       -5.89598
H         -1.55457       -1.19299       -7.14696
H         -2.61726       -0.41248       -5.94620
H          0.00831        0.67648       -7.00946
H         -1.59829        1.34142       -7.15530
H         -0.81588        1.35713       -5.58173
H          0.82575       -2.55932       -4.69439
H          0.56969       -2.19988       -6.39998
H          1.18036        0.23506       -4.71497
H          2.45429       -0.97480       -4.84080
H          1.79834       -0.26492       -6.29318
