46

C          1.11670        0.38743        0.13691
C          0.90529        0.65207       -1.34586
C          1.32040       -0.51906       -2.24007
C          0.56514       -1.83133       -2.00312
C         -0.95614       -1.75591       -2.17051
C         -1.44425       -1.30585       -3.55159
C         -0.99221       -2.17768       -4.72833
C         -1.38193       -3.65753       -4.64594
C         -2.88521       -3.93704       -4.55528
C         -3.67653       -3.55542       -5.80634
N         -3.29730       -4.36429       -6.97874
C         -3.59781       -5.71426       -7.11200
C         -3.06206       -6.12847       -8.29301
N         -2.46314       -5.02290       -8.86706
C         -2.64160       -3.93648       -8.08236
C         -2.17040       -2.55447       -8.39948
C         -1.74831       -5.02788      -10.14206
H          0.46012       -0.40843        0.50038
H          0.89424        1.28996        0.71524
H          2.15354        0.10201        0.34107
H         -0.14182        0.91889       -1.52480
H          1.49979        1.52901       -1.62965
H          1.20824       -0.21663       -3.28781
H          2.39161       -0.70925       -2.09596
H          0.96932       -2.59095       -2.68270
H          0.78484       -2.19762       -0.99313
H         -1.37972       -2.74022       -1.93839
H         -1.37119       -1.07593       -1.41717
H         -2.53960       -1.25982       -3.53485
H         -1.11307       -0.27696       -3.73617
H         -1.39631       -1.74441       -5.64934
H          0.09784       -2.11328       -4.82821
H         -0.96894       -4.17557       -5.51994
H         -0.89257       -4.11088       -3.77592
H         -3.01929       -5.00820       -4.36102
H         -3.31239       -3.41865       -3.69005
H         -4.74443       -3.73378       -5.62872
H         -3.57470       -2.49157       -6.02638
H         -4.14774       -6.21154       -6.33159
H         -3.02752       -7.07617       -8.80199
H         -1.11536       -2.50870       -8.12752
H         -2.31137       -2.39365       -9.46924
H         -2.76239       -1.83266       -7.84116
H         -2.31368       -4.43843      -10.86846
H         -0.75520       -4.59429       -9.99721
H         -1.64077       -6.05113      -10.51208
