44

Br        -1.68853        0.08441       -0.55084
C          0.19472        0.01356       -0.42873
C          0.92626        1.19194       -0.31347
C          2.31770        1.13385       -0.20217
C          2.98322       -0.10221       -0.20470
C          2.23721       -1.28169       -0.32950
C          0.84338       -1.22044       -0.44200
C          4.46102       -0.10082        0.01239
O          5.01939        0.94682        0.34132
C          5.22900       -1.41181        0.01292
N          5.06123       -2.12392        1.29132
C          4.80215       -1.52275        2.46586
N          4.54649       -2.47168        3.37854
C          4.87055       -3.71571        2.84778
C          5.21103       -3.48943        1.50561
C          5.59262       -4.52037        0.65074
C          5.61893       -5.80504        1.21021
C          5.27324       -6.03443        2.55603
C          4.88669       -4.99054        3.40856
C          4.01408       -2.18691        4.71164
C          4.99395       -1.33239        5.46768
C          4.83580        0.06208        5.52167
C          5.75965        0.85234        6.20601
C          6.84324        0.25914        6.84929
C          7.00897       -1.12353        6.80567
C          6.09370       -1.91673        6.11282
H          0.42577        2.15821       -0.30269
H          2.87413        2.06599       -0.10255
H          2.69563       -2.26574       -0.32622
H          0.26760       -2.13973       -0.53282
H          4.90928       -2.04013       -0.82331
H          6.29538       -1.20008       -0.12200
H          4.73749       -0.45304        2.63435
H          5.86272       -4.34348       -0.38284
H          5.91754       -6.65155        0.58991
H          5.31153       -7.05319        2.94486
H          4.62597       -5.16972        4.44400
H          3.05367       -1.67249        4.58846
H          3.81218       -3.11472        5.25576
H          3.99020        0.55151        5.04197
H          5.63295        1.93241        6.24754
H          7.55705        0.87542        7.39203
H          7.85225       -1.58205        7.31803
H          6.24436       -2.99411        6.09284
