33

F          0.76261       -0.42807        0.06189
C          1.95082        0.16874       -0.14816
C          2.43096        0.87679        1.10071
C          2.42179        0.00581        2.36254
C          3.07994       -1.38284        2.33258
N          4.62813       -1.43676        2.48198
C          5.31057       -0.93332        1.21190
C          5.08087       -0.64124        3.71466
C          6.54549       -0.88348        4.06067
C          6.85601       -2.35927        4.24835
C          6.43639       -3.16833        3.03213
C          4.97261       -2.94018        2.67773
F          2.83613       -0.78758       -0.50652
F          1.83316        1.02557       -1.17703
H          3.42388        1.29786        0.92688
H          1.77440        1.73704        1.28160
H          2.79137        0.59931        3.20456
H          1.36228       -0.17166        2.59782
H          2.68685       -1.93785        3.19437
H          2.81612       -1.95702        1.43945
H          4.90972       -1.48549        0.35909
H          5.13043        0.13628        1.11703
H          6.38688       -1.09915        1.28001
H          4.43526       -0.94407        4.54738
H          4.92318        0.42106        3.50354
H          6.78713       -0.34488        4.98463
H          7.19537       -0.46279        3.28492
H          7.92791       -2.49350        4.43221
H          6.33159       -2.73358        5.13620
H          7.08462       -2.93060        2.18195
H          6.59053       -4.23402        3.23924
H          4.70299       -3.46170        1.75227
H          4.33706       -3.31224        3.49039
