45

C          1.14019       -0.38756       -0.38909
C          0.98267       -1.27173        0.83860
C          1.34850       -0.56787        2.14790
C          0.51020        0.66907        2.48732
C         -0.99675        0.42477        2.62092
C         -1.40681       -0.57151        3.71177
C         -0.95507       -0.21567        5.13336
C         -1.40959        1.15628        5.64455
C         -2.92727        1.35452        5.72245
C         -3.65056        0.46416        6.73950
C         -3.27693        0.71321        8.20020
N         -3.70529        2.06898        8.62869
C         -5.00481        2.29168        8.94090
C         -5.43200        3.55132        9.34387
C         -4.51159        4.58688        9.43207
C         -3.18028        4.34222        9.12329
C         -2.79472        3.06669        8.72740
H          0.42536        0.44047       -0.38199
H          0.96151       -0.97083       -1.29810
H          2.15132        0.02776       -0.44696
H         -0.04148       -1.65738        0.88369
H          1.63634       -2.14484        0.72316
H          1.28018       -1.29308        2.96710
H          2.40249       -0.26556        2.10172
H          0.89420        1.10295        3.41807
H          0.67080        1.43696        1.72125
H         -1.48851        1.38721        2.80562
H         -1.39622        0.07499        1.66174
H         -2.49825       -0.67517        3.69399
H         -1.01549       -1.56482        3.46162
H         -1.30787       -0.99663        5.81703
H          0.13960       -0.25705        5.18291
H         -0.96267        1.32286        6.63058
H         -0.99135        1.93918        5.00138
H         -3.13051        2.40662        5.95286
H         -3.36951        1.18383        4.73426
H         -4.72969        0.61521        6.61326
H         -3.46414       -0.58939        6.50355
H         -3.78967       -0.00038        8.85618
H         -2.20368        0.60745        8.38449
H         -5.69322        1.45517        8.85991
H         -6.47800        3.72561        9.58765
H         -4.83032        5.58116        9.74303
H         -2.44635        5.14269        9.19013
H         -1.76273        2.83812        8.47794
