37

C          0.92895       -0.07026       -0.00392
C         -0.37491       -0.07026       -0.00392
C         -1.89491       -0.07026       -0.00392
N         -2.44835       -0.48528        1.36742
C         -2.04503        0.51161        2.46561
C         -2.51963        1.86607        2.18168
C         -2.89647        2.98225        1.94390
C         -3.32165        4.32347        1.65065
C         -2.51662        5.37153        2.11491
C         -2.86442        6.69241        1.85230
C         -4.01689        6.97394        1.12215
C         -4.84070        5.94253        0.64628
C         -4.50330        4.59131        0.90901
C         -5.37225        3.58966        0.41281
C         -6.52019        3.90745       -0.31611
C         -6.83178        5.23645       -0.56754
C         -5.99862        6.24616       -0.08858
C         -3.96641       -0.57520        1.26904
C         -1.92393       -1.86651        1.75296
H          1.99668       -0.06239       -0.02035
H         -2.28888        0.91725       -0.26291
H         -2.26020       -0.79920       -0.73665
H         -2.47369        0.14182        3.40445
H         -0.95437        0.48601        2.56049
H         -1.61240        5.16826        2.68432
H         -2.23970        7.50577        2.21422
H         -4.27043        8.01491        0.92698
H         -5.16591        2.54196        0.59736
H         -7.17319        3.12038       -0.68414
H         -7.72479        5.49234       -1.13287
H         -6.26434        7.28180       -0.29445
H         -4.22036       -1.37831        0.57003
H         -4.36907       -0.79732        2.26190
H         -4.35973        0.37274        0.89676
H         -2.14519       -2.56309        0.93864
H         -0.84680       -1.81030        1.93162
H         -2.43130       -2.18336        2.66969
