 xtb: 6.7.1 (edcfbbe)
          12202406473D

 42 43  0     0  0            999 V2000
    1.1797   -0.1585    0.2325 C   0  0  0  0  0  0  0  0  0  0  0  0
    0.6946    1.1194   -0.4413 C   0  0  0  0  0  0  0  0  0  0  0  0
    1.0986    1.2174   -1.9135 C   0  0  0  0  0  0  0  0  0  0  0  0
    0.5257    0.1201   -2.8134 C   0  0  0  0  0  0  0  0  0  0  0  0
   -1.0026    0.0431   -2.8458 C   0  0  0  0  0  0  0  0  0  0  0  0
   -1.7102    1.3358   -3.2604 C   0  0  0  0  0  0  0  0  0  0  0  0
   -1.2675    1.9312   -4.5980 C   0  0  0  0  0  0  0  0  0  0  0  0
   -1.5904    1.0636   -5.8235 C   0  0  0  0  0  0  0  0  0  0  0  0
   -3.0263    0.8379   -5.9474 N   0  0  0  0  0  0  0  0  0  0  0  0
   -3.7642    1.9049   -6.2316 C   0  0  0  0  0  0  0  0  0  0  0  0
   -5.1503    1.8799   -6.2530 C   0  0  0  0  0  0  0  0  0  0  0  0
   -5.7952    0.7047   -5.9480 C   0  0  0  0  0  0  0  0  0  0  0  0
   -5.0414   -0.4510   -5.6832 C   0  0  0  0  0  0  0  0  0  0  0  0
   -3.6131   -0.3801   -5.7157 C   0  0  0  0  0  0  0  0  0  0  0  0
   -2.8873   -1.5713   -5.5328 C   0  0  0  0  0  0  0  0  0  0  0  0
   -3.5353   -2.7531   -5.2759 C   0  0  0  0  0  0  0  0  0  0  0  0
   -4.9335   -2.8130   -5.1894 C   0  0  0  0  0  0  0  0  0  0  0  0
   -5.6720   -1.6834   -5.4018 C   0  0  0  0  0  0  0  0  0  0  0  0
    0.6840   -1.0359   -0.1759 H   0  0  0  0  0  0  0  0  0  0  0  0
    0.9713   -0.1213    1.2987 H   0  0  0  0  0  0  0  0  0  0  0  0
    2.2527   -0.2744    0.0991 H   0  0  0  0  0  0  0  0  0  0  0  0
   -0.3901    1.1953   -0.3420 H   0  0  0  0  0  0  0  0  0  0  0  0
    1.1265    1.9759    0.0803 H   0  0  0  0  0  0  0  0  0  0  0  0
    0.8027    2.1978   -2.2938 H   0  0  0  0  0  0  0  0  0  0  0  0
    2.1877    1.1637   -1.9764 H   0  0  0  0  0  0  0  0  0  0  0  0
    0.9114    0.2684   -3.8255 H   0  0  0  0  0  0  0  0  0  0  0  0
    0.9008   -0.8461   -2.4733 H   0  0  0  0  0  0  0  0  0  0  0  0
   -1.2963   -0.7737   -3.5093 H   0  0  0  0  0  0  0  0  0  0  0  0
   -1.3633   -0.2225   -1.8515 H   0  0  0  0  0  0  0  0  0  0  0  0
   -2.7895    1.1535   -3.2770 H   0  0  0  0  0  0  0  0  0  0  0  0
   -1.5290    2.0904   -2.4948 H   0  0  0  0  0  0  0  0  0  0  0  0
   -1.7360    2.9109   -4.7110 H   0  0  0  0  0  0  0  0  0  0  0  0
   -0.1893    2.0867   -4.5880 H   0  0  0  0  0  0  0  0  0  0  0  0
   -1.2449    1.5734   -6.7267 H   0  0  0  0  0  0  0  0  0  0  0  0
   -1.0611    0.1200   -5.7449 H   0  0  0  0  0  0  0  0  0  0  0  0
   -3.2327    2.8216   -6.4412 H   0  0  0  0  0  0  0  0  0  0  0  0
   -5.6941    2.7788   -6.4913 H   0  0  0  0  0  0  0  0  0  0  0  0
   -6.8727    0.6516   -5.9204 H   0  0  0  0  0  0  0  0  0  0  0  0
   -1.8140   -1.5927   -5.6163 H   0  0  0  0  0  0  0  0  0  0  0  0
   -2.9574   -3.6547   -5.1451 H   0  0  0  0  0  0  0  0  0  0  0  0
   -5.4159   -3.7530   -4.9745 H   0  0  0  0  0  0  0  0  0  0  0  0
   -6.7500   -1.7106   -5.3700 H   0  0  0  0  0  0  0  0  0  0  0  0
  1  2  1  0  0  0  0
  2  3  1  0  0  0  0
  3  4  1  0  0  0  0
  4  5  1  0  0  0  0
  5  6  1  0  0  0  0
  6  7  1  0  0  0  0
  7  8  1  0  0  0  0
  8  9  1  0  0  0  0
  9 10  4  0  0  0  0
 10 11  4  0  0  0  0
 11 12  4  0  0  0  0
 12 13  4  0  0  0  0
  9 14  1  0  0  0  0
 13 14  4  0  0  0  0
 14 15  4  0  0  0  0
 15 16  2  0  0  0  0
 16 17  4  0  0  0  0
 13 18  4  0  0  0  0
 17 18  2  0  0  0  0
  1 19  1  0  0  0  0
  1 20  1  0  0  0  0
  1 21  1  0  0  0  0
  2 22  1  0  0  0  0
  2 23  1  0  0  0  0
  3 24  1  0  0  0  0
  3 25  1  0  0  0  0
  4 26  1  0  0  0  0
  4 27  1  0  0  0  0
  5 28  1  0  0  0  0
  5 29  1  0  0  0  0
  6 30  1  0  0  0  0
  6 31  1  0  0  0  0
  7 32  1  0  0  0  0
  7 33  1  0  0  0  0
  8 34  1  0  0  0  0
  8 35  1  0  0  0  0
 10 36  1  0  0  0  0
 11 37  1  0  0  0  0
 12 38  1  0  0  0  0
 15 39  1  0  0  0  0
 16 40  1  0  0  0  0
 17 41  1  0  0  0  0
 18 42  1  0  0  0  0
M  CHG  1   1   1
M  END
