 xtb: 6.7.1 (edcfbbe)
          12202406473D

 61 60  0     0  0            999 V2000
    1.7383    0.8575   -0.7026 C   0  0  0  0  0  0  0  0  0  0  0  0
    1.4847    0.0632   -1.9783 C   0  0  0  0  0  0  0  0  0  0  0  0
    1.6471   -1.4464   -1.7926 C   0  0  0  0  0  0  0  0  0  0  0  0
    0.6850   -2.0809   -0.7859 C   0  0  0  0  0  0  0  0  0  0  0  0
   -0.7999   -1.8804   -1.0949 C   0  0  0  0  0  0  0  0  0  0  0  0
   -1.2548   -2.4157   -2.4539 C   0  0  0  0  0  0  0  0  0  0  0  0
   -1.0460   -3.9177   -2.6573 C   0  0  0  0  0  0  0  0  0  0  0  0
   -1.7715   -4.8110   -1.6488 C   0  0  0  0  0  0  0  0  0  0  0  0
   -3.2892   -4.6219   -1.5875 C   0  0  0  0  0  0  0  0  0  0  0  0
   -4.0223   -4.8343   -2.9146 C   0  0  0  0  0  0  0  0  0  0  0  0
   -3.9123   -6.2608   -3.4657 C   0  0  0  0  0  0  0  0  0  0  0  0
   -4.6912   -7.2911   -2.6364 C   0  0  0  0  0  0  0  0  0  0  0  0
   -5.9096   -7.8587   -3.2886 N   0  0  0  0  0  0  0  0  0  0  0  0
   -5.6040   -8.5678   -4.5697 C   0  0  0  0  0  0  0  0  0  0  0  0
   -4.3237   -9.4026   -4.5837 C   0  0  0  0  0  0  0  0  0  0  0  0
   -4.3123  -10.3201   -3.5050 O   0  0  0  0  0  0  0  0  0  0  0  0
   -3.3346  -11.3377   -3.6259 C   0  0  0  0  0  0  0  0  0  0  0  0
   -3.6799  -12.4104   -4.6612 C   0  0  0  0  0  0  0  0  0  0  0  0
   -3.4524  -11.9032   -5.9609 O   0  0  0  0  0  0  0  0  0  0  0  0
   -6.5205   -8.8196   -2.3458 C   0  0  0  0  0  0  0  0  0  0  0  0
   -6.8885   -6.7900   -3.5593 C   0  0  0  0  0  0  0  0  0  0  0  0
    0.9852    0.6430    0.0514 H   0  0  0  0  0  0  0  0  0  0  0  0
    1.7103    1.9242   -0.9125 H   0  0  0  0  0  0  0  0  0  0  0  0
    2.7161    0.6156   -0.2920 H   0  0  0  0  0  0  0  0  0  0  0  0
    0.4845    0.2874   -2.3540 H   0  0  0  0  0  0  0  0  0  0  0  0
    2.1965    0.3871   -2.7414 H   0  0  0  0  0  0  0  0  0  0  0  0
    1.5301   -1.9326   -2.7638 H   0  0  0  0  0  0  0  0  0  0  0  0
    2.6668   -1.6462   -1.4538 H   0  0  0  0  0  0  0  0  0  0  0  0
    0.9038   -3.1499   -0.7309 H   0  0  0  0  0  0  0  0  0  0  0  0
    0.8829   -1.6665    0.2041 H   0  0  0  0  0  0  0  0  0  0  0  0
   -1.3821   -2.3562   -0.3022 H   0  0  0  0  0  0  0  0  0  0  0  0
   -1.0300   -0.8143   -1.0588 H   0  0  0  0  0  0  0  0  0  0  0  0
   -2.3126   -2.1734   -2.5822 H   0  0  0  0  0  0  0  0  0  0  0  0
   -0.7124   -1.8908   -3.2418 H   0  0  0  0  0  0  0  0  0  0  0  0
   -1.3619   -4.1762   -3.6713 H   0  0  0  0  0  0  0  0  0  0  0  0
    0.0203   -4.1394   -2.5944 H   0  0  0  0  0  0  0  0  0  0  0  0
   -1.5378   -5.8539   -1.8787 H   0  0  0  0  0  0  0  0  0  0  0  0
   -1.3733   -4.6153   -0.6526 H   0  0  0  0  0  0  0  0  0  0  0  0
   -3.6858   -5.3021   -0.8288 H   0  0  0  0  0  0  0  0  0  0  0  0
   -3.5032   -3.6086   -1.2471 H   0  0  0  0  0  0  0  0  0  0  0  0
   -5.0728   -4.5661   -2.7790 H   0  0  0  0  0  0  0  0  0  0  0  0
   -3.6090   -4.1495   -3.6544 H   0  0  0  0  0  0  0  0  0  0  0  0
   -4.2447   -6.2646   -4.5036 H   0  0  0  0  0  0  0  0  0  0  0  0
   -2.8585   -6.5368   -3.4782 H   0  0  0  0  0  0  0  0  0  0  0  0
   -4.0590   -8.1373   -2.3676 H   0  0  0  0  0  0  0  0  0  0  0  0
   -5.0215   -6.8184   -1.7094 H   0  0  0  0  0  0  0  0  0  0  0  0
   -6.4525   -9.2202   -4.7829 H   0  0  0  0  0  0  0  0  0  0  0  0
   -5.5250   -7.8356   -5.3739 H   0  0  0  0  0  0  0  0  0  0  0  0
   -4.2946   -9.9398   -5.5384 H   0  0  0  0  0  0  0  0  0  0  0  0
   -3.4307   -8.7641   -4.5360 H   0  0  0  0  0  0  0  0  0  0  0  0
   -2.3623  -10.8973   -3.8774 H   0  0  0  0  0  0  0  0  0  0  0  0
   -3.2837  -11.7976   -2.6374 H   0  0  0  0  0  0  0  0  0  0  0  0
   -3.0450  -13.2814   -4.4659 H   0  0  0  0  0  0  0  0  0  0  0  0
   -4.7318  -12.7055   -4.5428 H   0  0  0  0  0  0  0  0  0  0  0  0
   -3.4427  -12.6303   -6.5919 H   0  0  0  0  0  0  0  0  0  0  0  0
   -6.6901   -8.3443   -1.3817 H   0  0  0  0  0  0  0  0  0  0  0  0
   -7.4755   -9.1674   -2.7350 H   0  0  0  0  0  0  0  0  0  0  0  0
   -5.8573   -9.6732   -2.2212 H   0  0  0  0  0  0  0  0  0  0  0  0
   -7.2048   -6.3340   -2.6226 H   0  0  0  0  0  0  0  0  0  0  0  0
   -6.4543   -6.0205   -4.1931 H   0  0  0  0  0  0  0  0  0  0  0  0
   -7.7635   -7.2020   -4.0593 H   0  0  0  0  0  0  0  0  0  0  0  0
  1  2  1  0  0  0  0
  2  3  1  0  0  0  0
  3  4  1  0  0  0  0
  4  5  1  0  0  0  0
  5  6  1  0  0  0  0
  6  7  1  0  0  0  0
  7  8  1  0  0  0  0
  8  9  1  0  0  0  0
  9 10  1  0  0  0  0
 10 11  1  0  0  0  0
 11 12  1  0  0  0  0
 12 13  1  0  0  0  0
 13 14  1  0  0  0  0
 14 15  1  0  0  0  0
 15 16  1  0  0  0  0
 16 17  1  0  0  0  0
 17 18  1  0  0  0  0
 18 19  1  0  0  0  0
 13 20  1  0  0  0  0
 13 21  1  0  0  0  0
  1 22  1  0  0  0  0
  1 23  1  0  0  0  0
  1 24  1  0  0  0  0
  2 25  1  0  0  0  0
  2 26  1  0  0  0  0
  3 27  1  0  0  0  0
  3 28  1  0  0  0  0
  4 29  1  0  0  0  0
  4 30  1  0  0  0  0
  5 31  1  0  0  0  0
  5 32  1  0  0  0  0
  6 33  1  0  0  0  0
  6 34  1  0  0  0  0
  7 35  1  0  0  0  0
  7 36  1  0  0  0  0
  8 37  1  0  0  0  0
  8 38  1  0  0  0  0
  9 39  1  0  0  0  0
  9 40  1  0  0  0  0
 10 41  1  0  0  0  0
 10 42  1  0  0  0  0
 11 43  1  0  0  0  0
 11 44  1  0  0  0  0
 12 45  1  0  0  0  0
 12 46  1  0  0  0  0
 14 47  1  0  0  0  0
 14 48  1  0  0  0  0
 15 49  1  0  0  0  0
 15 50  1  0  0  0  0
 17 51  1  0  0  0  0
 17 52  1  0  0  0  0
 18 53  1  0  0  0  0
 18 54  1  0  0  0  0
 19 55  1  0  0  0  0
 20 56  1  0  0  0  0
 20 57  1  0  0  0  0
 20 58  1  0  0  0  0
 21 59  1  0  0  0  0
 21 60  1  0  0  0  0
 21 61  1  0  0  0  0
M  CHG  1   1   1
M  END
