55

C          1.93773       -0.84747        0.63794
C          1.01709       -0.45387       -0.49773
C          1.19988       -1.25862       -1.75209
N          0.78118       -2.52800       -1.92107
O          0.02896       -3.16453       -0.91074
C         -0.13423       -4.57983       -1.06541
C         -1.22307       -4.97117       -2.03577
C         -2.28912       -4.11447       -2.34717
C         -3.28459       -4.51842       -3.23898
C         -3.23586       -5.78581       -3.81500
C         -2.19583       -6.65494       -3.49622
C         -1.19740       -6.25316       -2.60822
C          1.11388       -3.00054       -3.16912
C          1.78635       -1.98432       -3.78477
N          1.82163       -0.90782       -2.90168
C          2.42645        0.39689       -3.20068
C          1.39249        1.27484       -3.85546
C          1.09670        1.12908       -5.21366
C          0.14249        1.94139       -5.83920
O         -0.01896        1.65979       -7.17445
C         -0.10529        2.80498       -8.02222
C         -0.59840        2.88482       -5.10187
C         -0.30500        3.03390       -3.73469
C          0.69931        2.25335       -3.13288
O         -0.92473        4.01463       -3.00282
C         -1.43114        3.57975       -1.74189
O         -1.54963        3.56876       -5.80921
C         -2.57781        4.25895       -5.11570
H          1.77797       -1.89090        0.92731
H          1.76015       -0.21642        1.51365
H          2.98596       -0.74341        0.34038
H         -0.03229       -0.58315       -0.21537
H          1.16371        0.59362       -0.75793
H          0.82896       -5.02978       -1.33310
H         -0.40762       -4.97117       -0.07902
H         -2.36517       -3.12580       -1.90021
H         -4.10854       -3.84941       -3.47815
H         -4.01793       -6.10247       -4.50172
H         -2.17085       -7.65152       -3.93208
H         -0.40468       -6.95781       -2.36197
H          0.83748       -3.98613       -3.49497
H          2.23368       -1.88085       -4.75891
H          2.81683        0.84277       -2.28044
H          3.28430        0.25052       -3.86783
H          1.62343        0.39789       -5.82345
H         -1.15217        3.07444       -8.18899
H          0.46670        3.65851       -7.64081
H          0.32075        2.52979       -8.99216
H          0.96041        2.44132       -2.09530
H         -1.86454        2.57458       -1.79803
H         -0.64659        3.61980       -0.98015
H         -2.22425        4.27181       -1.44340
H         -3.05332        3.62698       -4.35884
H         -2.20275        5.19536       -4.69274
H         -3.34830        4.52248       -5.84729
