36

C          0.79943       -0.06168        0.37639
O          0.49580        1.33451        0.25420
C          1.56705        2.13632        0.01504
O          2.72115        1.76427       -0.14304
C          1.12270        3.58172       -0.17583
N          0.89092        4.02009       -1.66219
C         -0.33323        3.25719       -2.20902
C         -0.76536        3.58639       -3.61545
C         -0.27855        2.84582       -4.70299
C         -0.69080        3.13887       -6.00518
C         -1.58833        4.18274       -6.24779
C         -2.08885        4.91329       -5.16590
C         -1.68315        4.61852       -3.86222
C         -2.07134        4.46845       -7.64053
C          0.65364        5.52229       -1.67530
C          2.14044        3.71126       -2.48288
H         -0.11042       -0.62401        0.14904
H          1.10100       -0.27720        1.40487
H          1.57673       -0.37685       -0.32721
H          0.19390        3.77625        0.37305
H          1.89934        4.23458        0.23991
H         -1.16144        3.44764       -1.51438
H         -0.10146        2.18765       -2.14582
H          0.40979        2.01559       -4.55544
H         -0.31619        2.53857       -6.83328
H         -2.81151        5.71031       -5.33634
H         -2.11173        5.19781       -3.04679
H         -1.35704        4.10787       -8.38803
H         -3.03410        3.97624       -7.80999
H         -2.18899        5.54610       -7.79494
H          1.50225        6.01033       -1.18582
H          0.58524        5.86770       -2.71002
H         -0.27057        5.73268       -1.12964
H          3.00629        4.12907       -1.96052
H          2.23689        2.62773       -2.59022
H          2.04098        4.17882       -3.46628
