18

C          0.80135        0.05947       -0.06150
C          0.59810       -0.70301        1.23319
N          0.30926        1.42253        0.04693
C          1.04529        2.57513        0.20757
N          0.32111        3.63315        0.27639
N         -0.95724        3.15374        0.14698
C         -0.96938        1.82235        0.00873
C         -2.06855        4.07919        0.19226
H          0.26659       -0.43115       -0.88191
H          1.86456        0.08458       -0.32384
H          1.11576       -0.20858        2.06135
H         -0.46462       -0.75732        1.49054
H          0.98299       -1.72303        1.14282
H          2.12314        2.52026        0.26523
H         -1.84475        1.19520       -0.10611
H         -2.76535        3.83765       -0.61462
H         -2.57305        3.97612        1.15634
H         -1.71750        5.10727        0.06935
