36

C          1.06356       -0.04653        0.06160
N          0.57356        1.32382       -0.14562
C         -0.58007        1.66901       -0.64541
C         -0.64633        3.01788       -0.68640
N          0.53536        3.49664       -0.18854
C          1.27896        2.42444        0.14791
C          0.91933        4.90862       -0.04795
C          1.19483        5.21553        1.41503
C          2.32562        4.33086        1.91409
C          3.57795        4.59930        1.09554
C          3.97498        6.05931        1.24091
C          4.25048        6.36621        2.70389
S          5.59702        5.31275        3.29816
F          5.02308        5.35819        4.77604
F          6.45094        6.58525        3.66405
F          6.71769        4.37400        3.82772
F          4.67097        4.05665        3.05483
F          4.40632        6.25672        2.86227
F          4.59787        7.64372        2.83108
F          3.15469        6.13133        3.42012
F          5.07076        6.29419        0.52467
F          2.98553        6.83340        0.80423
F          4.56739        3.82521        1.53221
F          3.33688        4.33076       -0.18457
F          2.56668        4.59940        3.19420
F          1.97822        3.05335        1.78689
H          0.70690       -0.67589       -0.72681
H          0.70690       -0.41464        1.00085
H          2.13356       -0.04653        0.06160
H         -1.34656        0.99627       -0.96915
H         -1.46896        3.60263       -1.04170
H          2.26002        2.44788        0.57439
H          1.80090        5.09759       -0.62417
H          0.12331        5.53139       -0.39926
H          1.47431        6.24330        1.51736
H          0.31326        5.02656        1.99125
