 xtb: 6.7.1 (edcfbbe)
          12202406483D

 57 57  0     0  0            999 V2000
   -0.8260   -2.3026   -2.5283 O   0  0  0  0  0  0  0  0  0  0  0  0
   -0.2428   -1.8562   -1.5499 C   0  0  0  0  0  0  0  0  0  0  0  0
    1.0878   -2.2182   -1.1355 C   0  0  0  0  0  0  0  0  0  0  0  0
    1.5389   -1.9130    0.1579 C   0  0  0  0  0  0  0  0  0  0  0  0
    2.7380   -2.3995    0.6067 C   0  0  0  0  0  0  0  0  0  0  0  0
    3.5461   -3.2073   -0.2158 C   0  0  0  0  0  0  0  0  0  0  0  0
    3.1450   -3.4242   -1.5417 C   0  0  0  0  0  0  0  0  0  0  0  0
    1.9362   -2.9424   -1.9827 C   0  0  0  0  0  0  0  0  0  0  0  0
    4.6616   -3.6675    0.3541 O   0  0  0  0  0  0  0  0  0  0  0  0
    5.3719   -4.7897   -0.1511 C   0  0  0  0  0  0  0  0  0  0  0  0
    5.0346   -6.0411    0.6667 C   0  0  0  0  0  0  0  0  0  0  0  0
    3.5869   -6.5201    0.5328 C   0  0  0  0  0  0  0  0  0  0  0  0
    3.2540   -7.0847   -0.8485 C   0  0  0  0  0  0  0  0  0  0  0  0
    1.9744   -7.9254   -0.8656 C   0  0  0  0  0  0  0  0  0  0  0  0
    0.7017   -7.2010   -0.4160 C   0  0  0  0  0  0  0  0  0  0  0  0
    0.4016   -5.8985   -1.1598 C   0  0  0  0  0  0  0  0  0  0  0  0
    0.0927   -6.0765   -2.6500 C   0  0  0  0  0  0  0  0  0  0  0  0
   -1.3815   -6.4000   -2.9178 C   0  0  0  0  0  0  0  0  0  0  0  0
   -2.2923   -5.1704   -2.7982 C   0  0  0  0  0  0  0  0  0  0  0  0
   -2.7508   -4.5577   -4.0826 N   0  0  0  0  0  0  0  0  0  0  0  0
   -3.6374   -5.4734   -4.8187 C   0  0  0  0  0  0  0  0  0  0  0  0
   -3.4995   -3.3289   -3.7524 C   0  0  0  0  0  0  0  0  0  0  0  0
   -1.6015   -4.1789   -4.9218 C   0  0  0  0  0  0  0  0  0  0  0  0
   -0.7662   -1.1569   -0.8753 H   0  0  0  0  0  0  0  0  0  0  0  0
    0.9165   -1.3209    0.8119 H   0  0  0  0  0  0  0  0  0  0  0  0
    3.0862   -2.1961    1.6067 H   0  0  0  0  0  0  0  0  0  0  0  0
    3.7761   -3.9620   -2.2317 H   0  0  0  0  0  0  0  0  0  0  0  0
    1.6283   -3.1115   -3.0043 H   0  0  0  0  0  0  0  0  0  0  0  0
    5.1819   -4.9568   -1.2119 H   0  0  0  0  0  0  0  0  0  0  0  0
    6.4306   -4.5483   -0.0212 H   0  0  0  0  0  0  0  0  0  0  0  0
    5.7149   -6.8359    0.3571 H   0  0  0  0  0  0  0  0  0  0  0  0
    5.2336   -5.8151    1.7155 H   0  0  0  0  0  0  0  0  0  0  0  0
    3.4299   -7.3056    1.2747 H   0  0  0  0  0  0  0  0  0  0  0  0
    2.9101   -5.6986    0.7780 H   0  0  0  0  0  0  0  0  0  0  0  0
    3.1665   -6.2780   -1.5776 H   0  0  0  0  0  0  0  0  0  0  0  0
    4.0758   -7.7287   -1.1706 H   0  0  0  0  0  0  0  0  0  0  0  0
    1.8373   -8.3183   -1.8756 H   0  0  0  0  0  0  0  0  0  0  0  0
    2.1141   -8.7857   -0.2081 H   0  0  0  0  0  0  0  0  0  0  0  0
   -0.1382   -7.8906   -0.5288 H   0  0  0  0  0  0  0  0  0  0  0  0
    0.7861   -6.9685    0.6464 H   0  0  0  0  0  0  0  0  0  0  0  0
   -0.4423   -5.4063   -0.6700 H   0  0  0  0  0  0  0  0  0  0  0  0
    1.2562   -5.2331   -1.0530 H   0  0  0  0  0  0  0  0  0  0  0  0
    0.3681   -5.1644   -3.1789 H   0  0  0  0  0  0  0  0  0  0  0  0
    0.7094   -6.8820   -3.0472 H   0  0  0  0  0  0  0  0  0  0  0  0
   -1.4793   -6.8678   -3.8972 H   0  0  0  0  0  0  0  0  0  0  0  0
   -1.7060   -7.1429   -2.1888 H   0  0  0  0  0  0  0  0  0  0  0  0
   -3.1915   -5.4231   -2.2338 H   0  0  0  0  0  0  0  0  0  0  0  0
   -1.7562   -4.3878   -2.2578 H   0  0  0  0  0  0  0  0  0  0  0  0
   -4.4906   -5.7471   -4.2002 H   0  0  0  0  0  0  0  0  0  0  0  0
   -4.0024   -4.9897   -5.7232 H   0  0  0  0  0  0  0  0  0  0  0  0
   -3.1095   -6.3805   -5.1037 H   0  0  0  0  0  0  0  0  0  0  0  0
   -2.8352   -2.6295   -3.2435 H   0  0  0  0  0  0  0  0  0  0  0  0
   -3.8710   -2.8625   -4.6626 H   0  0  0  0  0  0  0  0  0  0  0  0
   -4.3438   -3.5604   -3.1062 H   0  0  0  0  0  0  0  0  0  0  0  0
   -0.9829   -3.4722   -4.3691 H   0  0  0  0  0  0  0  0  0  0  0  0
   -1.0141   -5.0537   -5.1870 H   0  0  0  0  0  0  0  0  0  0  0  0
   -1.9517   -3.7016   -5.8351 H   0  0  0  0  0  0  0  0  0  0  0  0
  1  2  2  0  0  0  0
  2  3  1  0  0  0  0
  3  4  4  0  0  0  0
  4  5  2  0  0  0  0
  5  6  4  0  0  0  0
  6  7  4  0  0  0  0
  3  8  4  0  0  0  0
  7  8  2  0  0  0  0
  6  9  1  0  0  0  0
  9 10  1  0  0  0  0
 10 11  1  0  0  0  0
 11 12  1  0  0  0  0
 12 13  1  0  0  0  0
 13 14  1  0  0  0  0
 14 15  1  0  0  0  0
 15 16  1  0  0  0  0
 16 17  1  0  0  0  0
 17 18  1  0  0  0  0
 18 19  1  0  0  0  0
 19 20  1  0  0  0  0
 20 21  1  0  0  0  0
 20 22  1  0  0  0  0
 20 23  1  0  0  0  0
  2 24  1  0  0  0  0
  4 25  1  0  0  0  0
  5 26  1  0  0  0  0
  7 27  1  0  0  0  0
  8 28  1  0  0  0  0
 10 29  1  0  0  0  0
 10 30  1  0  0  0  0
 11 31  1  0  0  0  0
 11 32  1  0  0  0  0
 12 33  1  0  0  0  0
 12 34  1  0  0  0  0
 13 35  1  0  0  0  0
 13 36  1  0  0  0  0
 14 37  1  0  0  0  0
 14 38  1  0  0  0  0
 15 39  1  0  0  0  0
 15 40  1  0  0  0  0
 16 41  1  0  0  0  0
 16 42  1  0  0  0  0
 17 43  1  0  0  0  0
 17 44  1  0  0  0  0
 18 45  1  0  0  0  0
 18 46  1  0  0  0  0
 19 47  1  0  0  0  0
 19 48  1  0  0  0  0
 21 49  1  0  0  0  0
 21 50  1  0  0  0  0
 21 51  1  0  0  0  0
 22 52  1  0  0  0  0
 22 53  1  0  0  0  0
 22 54  1  0  0  0  0
 23 55  1  0  0  0  0
 23 56  1  0  0  0  0
 23 57  1  0  0  0  0
M  CHG  1   1   1
M  END
