57

O          2.05221        0.60450       -1.07368
C          2.63280        0.40876       -0.01263
C          3.39347       -0.83038        0.23908
C          3.89187       -1.08625        1.51547
C          4.56759       -2.28476        1.75691
C          4.74939       -3.22762        0.73793
C          4.28750       -2.94026       -0.54542
C          3.59898       -1.74821       -0.79366
O          5.38293       -4.36579        1.13885
C          5.38364       -5.52334        0.30440
C          4.25076       -6.48449        0.68102
C          2.84831       -6.07250        0.21594
C          2.67560       -6.11241       -1.30889
C          1.71515       -7.20233       -1.79891
C          0.24858       -7.03572       -1.38147
C         -0.40152       -5.69978       -1.75425
C         -0.39191       -5.35330       -3.24641
C         -1.10022       -6.34598       -4.17692
C         -2.54594       -6.73251       -3.84378
N         -3.64010       -5.74927       -4.30070
C         -3.63891       -5.56932       -5.81552
C         -4.99242       -6.35927       -3.90056
C         -3.53035       -4.38906       -3.62990
H          2.59480        1.14241        0.81028
H          3.75351       -0.37972        2.32936
H          4.94724       -2.49681        2.75485
H          4.43818       -3.61608       -1.37846
H          3.22702       -1.53775       -1.79422
H          5.42652       -5.29981       -0.76401
H          6.32850       -6.03540        0.52435
H          4.47562       -7.47782        0.27449
H          4.22510       -6.58085        1.77377
H          2.12852       -6.74013        0.70183
H          2.61331       -5.06860        0.58455
H          2.32826       -5.13415       -1.65848
H          3.64095       -6.27647       -1.80092
H          1.77135       -7.24548       -2.89317
H          2.07128       -8.17666       -1.44129
H         -0.33043       -7.85654       -1.82167
H          0.16203       -7.16591       -0.29648
H         -1.43273       -5.69846       -1.38348
H          0.09887       -4.89111       -1.20810
H         -0.81509       -4.35366       -3.36824
H          0.64720       -5.25792       -3.58500
H         -1.01871       -5.98281       -5.20607
H         -0.51417       -7.27456       -4.16214
H         -2.77302       -7.67874       -4.35167
H         -2.68731       -6.89983       -2.77141
H         -3.67920       -6.55731       -6.28280
H         -4.51780       -4.97909       -6.09325
H         -2.73280       -5.03551       -6.11121
H         -5.01101       -6.47081       -2.81230
H         -5.79056       -5.68648       -4.22886
H         -5.09161       -7.33234       -4.39091
H         -3.38332       -4.53913       -2.55718
H         -2.70041       -3.84054       -4.07762
H         -4.45739       -3.83604       -3.81169
