 xtb: 6.7.1 (edcfbbe)
          12202406483D

 25 25  0     0  0            999 V2000
    2.3691    0.6183    0.6483 C   0  0  0  0  0  0  0  0  0  0  0  0
    0.8918    0.5086    1.0031 C   0  0  0  0  0  0  0  0  0  0  0  0
    0.2093    1.8787    1.0907 C   0  0  0  0  0  0  0  0  0  0  0  0
    0.2083    2.5555   -0.1878 N   0  0  0  0  0  0  0  0  0  0  0  0
    1.1265    3.4927   -0.5660 C   0  0  0  0  0  0  0  0  0  0  0  0
    0.8437    3.8484   -1.8455 C   0  0  0  0  0  0  0  0  0  0  0  0
   -0.2418    3.1195   -2.2350 N   0  0  0  0  0  0  0  0  0  0  0  0
   -0.6182    2.3343   -1.2166 C   0  0  0  0  0  0  0  0  0  0  0  0
   -1.7603    1.4011   -1.2693 C   0  0  0  0  0  0  0  0  0  0  0  0
   -0.8822    3.1829   -3.5211 C   0  0  0  0  0  0  0  0  0  0  0  0
    2.5121    1.0567   -0.3375 H   0  0  0  0  0  0  0  0  0  0  0  0
    2.8207   -0.3690    0.6434 H   0  0  0  0  0  0  0  0  0  0  0  0
    2.8972    1.2246    1.3798 H   0  0  0  0  0  0  0  0  0  0  0  0
    0.3794   -0.1122    0.2660 H   0  0  0  0  0  0  0  0  0  0  0  0
    0.7874    0.0265    1.9748 H   0  0  0  0  0  0  0  0  0  0  0  0
   -0.8200    1.7688    1.4381 H   0  0  0  0  0  0  0  0  0  0  0  0
    0.7461    2.5118    1.7992 H   0  0  0  0  0  0  0  0  0  0  0  0
    1.8980    3.8360    0.0914 H   0  0  0  0  0  0  0  0  0  0  0  0
    1.3276    4.5512   -2.4913 H   0  0  0  0  0  0  0  0  0  0  0  0
   -2.6472    1.9088   -1.6476 H   0  0  0  0  0  0  0  0  0  0  0  0
   -1.5446    0.5716   -1.9445 H   0  0  0  0  0  0  0  0  0  0  0  0
   -1.9832    0.9930   -0.2888 H   0  0  0  0  0  0  0  0  0  0  0  0
   -0.8962    2.1980   -3.9891 H   0  0  0  0  0  0  0  0  0  0  0  0
   -1.9096    3.5361   -3.4203 H   0  0  0  0  0  0  0  0  0  0  0  0
   -0.3359    3.8714   -4.1612 H   0  0  0  0  0  0  0  0  0  0  0  0
  1  2  1  0  0  0  0
  2  3  1  0  0  0  0
  3  4  1  0  0  0  0
  4  5  4  0  0  0  0
  5  6  2  0  0  0  0
  6  7  4  0  0  0  0
  4  8  4  0  0  0  0
  7  8  4  0  0  0  0
  8  9  1  0  0  0  0
  7 10  1  0  0  0  0
  1 11  1  0  0  0  0
  1 12  1  0  0  0  0
  1 13  1  0  0  0  0
  2 14  1  0  0  0  0
  2 15  1  0  0  0  0
  3 16  1  0  0  0  0
  3 17  1  0  0  0  0
  5 18  1  0  0  0  0
  6 19  1  0  0  0  0
  9 20  1  0  0  0  0
  9 21  1  0  0  0  0
  9 22  1  0  0  0  0
 10 23  1  0  0  0  0
 10 24  1  0  0  0  0
 10 25  1  0  0  0  0
M  CHG  1   1   1
M  END
