 xtb: 6.7.1 (edcfbbe)
          12202406473D

 18 18  0     0  0            999 V2000
    0.7258    0.0304   -0.1018 C   0  0  0  0  0  0  0  0  0  0  0  0
    0.6908   -0.6621    1.2567 C   0  0  0  0  0  0  0  0  0  0  0  0
    0.2665    1.3985    0.0139 N   0  0  0  0  0  0  0  0  0  0  0  0
    1.0146    2.4884    0.3297 C   0  0  0  0  0  0  0  0  0  0  0  0
    0.2695    3.5473    0.4096 N   0  0  0  0  0  0  0  0  0  0  0  0
   -0.9699    3.1508    0.1506 N   0  0  0  0  0  0  0  0  0  0  0  0
   -0.9892    1.8477   -0.0897 C   0  0  0  0  0  0  0  0  0  0  0  0
   -2.0590    4.0835    0.1724 C   0  0  0  0  0  0  0  0  0  0  0  0
    0.0831   -0.4914   -0.8133 H   0  0  0  0  0  0  0  0  0  0  0  0
    1.7455    0.0493   -0.4910 H   0  0  0  0  0  0  0  0  0  0  0  0
    1.3234   -0.1451    1.9740 H   0  0  0  0  0  0  0  0  0  0  0  0
   -0.3228   -0.7054    1.6475 H   0  0  0  0  0  0  0  0  0  0  0  0
    1.0582   -1.6779    1.1484 H   0  0  0  0  0  0  0  0  0  0  0  0
    2.0748    2.4822    0.4842 H   0  0  0  0  0  0  0  0  0  0  0  0
   -1.8526    1.2596   -0.3328 H   0  0  0  0  0  0  0  0  0  0  0  0
   -2.7551    3.8779   -0.6386 H   0  0  0  0  0  0  0  0  0  0  0  0
   -2.5901    4.0246    1.1241 H   0  0  0  0  0  0  0  0  0  0  0  0
   -1.6457    5.0850    0.0658 H   0  0  0  0  0  0  0  0  0  0  0  0
  1  2  1  0  0  0  0
  1  3  1  0  0  0  0
  3  4  4  0  0  0  0
  4  5  2  0  0  0  0
  5  6  4  0  0  0  0
  3  7  4  0  0  0  0
  6  7  4  0  0  0  0
  6  8  1  0  0  0  0
  1  9  1  0  0  0  0
  1 10  1  0  0  0  0
  2 11  1  0  0  0  0
  2 12  1  0  0  0  0
  2 13  1  0  0  0  0
  4 14  1  0  0  0  0
  7 15  1  0  0  0  0
  8 16  1  0  0  0  0
  8 17  1  0  0  0  0
  8 18  1  0  0  0  0
M  CHG  1   1   1
M  END
