 xtb: 6.7.1 (edcfbbe)
          12202406483D

 43 44  0     0  0            999 V2000
    1.0113    0.1581   -0.1906 C   0  0  0  0  0  0  0  0  0  0  0  0
    0.5550   -0.6662    1.0056 C   0  0  0  0  0  0  0  0  0  0  0  0
    0.9153   -0.1228    2.3443 N   0  0  0  0  0  0  0  0  0  0  0  0
    0.2873    1.2320    2.5595 C   0  0  0  0  0  0  0  0  0  0  0  0
   -1.2186    1.2435    2.6418 C   0  0  0  0  0  0  0  0  0  0  0  0
   -2.0030    1.3463    1.4970 C   0  0  0  0  0  0  0  0  0  0  0  0
   -3.3834    1.3901    1.5913 C   0  0  0  0  0  0  0  0  0  0  0  0
   -3.9989    1.3418    2.8300 C   0  0  0  0  0  0  0  0  0  0  0  0
   -3.2274    1.2599    3.9772 C   0  0  0  0  0  0  0  0  0  0  0  0
   -1.8480    1.2135    3.8840 C   0  0  0  0  0  0  0  0  0  0  0  0
    0.3682   -1.0299    3.4130 C   0  0  0  0  0  0  0  0  0  0  0  0
    0.9024   -2.4362    3.4708 C   0  0  0  0  0  0  0  0  0  0  0  0
    0.3552   -3.4433    2.6817 C   0  0  0  0  0  0  0  0  0  0  0  0
    0.8278   -4.7412    2.7746 C   0  0  0  0  0  0  0  0  0  0  0  0
    1.8382   -5.0523    3.6689 C   0  0  0  0  0  0  0  0  0  0  0  0
    2.3655   -4.0636    4.4833 C   0  0  0  0  0  0  0  0  0  0  0  0
    1.8985   -2.7648    4.3872 C   0  0  0  0  0  0  0  0  0  0  0  0
    2.3945    0.0621    2.4918 C   0  0  0  0  0  0  0  0  0  0  0  0
    3.2922   -1.0463    1.9587 C   0  0  0  0  0  0  0  0  0  0  0  0
    0.5082    1.1183   -0.2548 H   0  0  0  0  0  0  0  0  0  0  0  0
    0.7592   -0.3989   -1.0897 H   0  0  0  0  0  0  0  0  0  0  0  0
    2.0826    0.3304   -0.2015 H   0  0  0  0  0  0  0  0  0  0  0  0
   -0.5334   -0.7568    0.9808 H   0  0  0  0  0  0  0  0  0  0  0  0
    0.9853   -1.6660    0.9409 H   0  0  0  0  0  0  0  0  0  0  0  0
    0.6947    1.6272    3.4929 H   0  0  0  0  0  0  0  0  0  0  0  0
    0.6150    1.8793    1.7456 H   0  0  0  0  0  0  0  0  0  0  0  0
   -1.5443    1.4175    0.5224 H   0  0  0  0  0  0  0  0  0  0  0  0
   -3.9763    1.4736    0.6940 H   0  0  0  0  0  0  0  0  0  0  0  0
   -5.0741    1.3829    2.9022 H   0  0  0  0  0  0  0  0  0  0  0  0
   -3.6979    1.2417    4.9474 H   0  0  0  0  0  0  0  0  0  0  0  0
   -1.2581    1.1707    4.7882 H   0  0  0  0  0  0  0  0  0  0  0  0
    0.5660   -0.5419    4.3696 H   0  0  0  0  0  0  0  0  0  0  0  0
   -0.7139   -1.0673    3.2662 H   0  0  0  0  0  0  0  0  0  0  0  0
   -0.4592   -3.2234    2.0068 H   0  0  0  0  0  0  0  0  0  0  0  0
    0.3965   -5.5118    2.1552 H   0  0  0  0  0  0  0  0  0  0  0  0
    2.2020   -6.0647    3.7431 H   0  0  0  0  0  0  0  0  0  0  0  0
    3.1364   -4.3034    5.1985 H   0  0  0  0  0  0  0  0  0  0  0  0
    2.3093   -2.0035    5.0348 H   0  0  0  0  0  0  0  0  0  0  0  0
    2.6587    0.9928    1.9854 H   0  0  0  0  0  0  0  0  0  0  0  0
    2.5921    0.1959    3.5571 H   0  0  0  0  0  0  0  0  0  0  0  0
    3.2518   -1.1352    0.8780 H   0  0  0  0  0  0  0  0  0  0  0  0
    4.3147   -0.7886    2.2256 H   0  0  0  0  0  0  0  0  0  0  0  0
    3.0693   -2.0116    2.3992 H   0  0  0  0  0  0  0  0  0  0  0  0
  1  2  1  0  0  0  0
  2  3  1  0  0  0  0
  3  4  1  0  0  0  0
  4  5  1  0  0  0  0
  5  6  4  0  0  0  0
  6  7  4  0  0  0  0
  7  8  4  0  0  0  0
  8  9  4  0  0  0  0
  5 10  4  0  0  0  0
  9 10  4  0  0  0  0
  3 11  1  0  0  0  0
 11 12  1  0  0  0  0
 12 13  4  0  0  0  0
 13 14  4  0  0  0  0
 14 15  4  0  0  0  0
 15 16  4  0  0  0  0
 12 17  4  0  0  0  0
 16 17  4  0  0  0  0
  3 18  1  0  0  0  0
 18 19  1  0  0  0  0
  1 20  1  0  0  0  0
  1 21  1  0  0  0  0
  1 22  1  0  0  0  0
  2 23  1  0  0  0  0
  2 24  1  0  0  0  0
  4 25  1  0  0  0  0
  4 26  1  0  0  0  0
  6 27  1  0  0  0  0
  7 28  1  0  0  0  0
  8 29  1  0  0  0  0
  9 30  1  0  0  0  0
 10 31  1  0  0  0  0
 11 32  1  0  0  0  0
 11 33  1  0  0  0  0
 13 34  1  0  0  0  0
 14 35  1  0  0  0  0
 15 36  1  0  0  0  0
 16 37  1  0  0  0  0
 17 38  1  0  0  0  0
 18 39  1  0  0  0  0
 18 40  1  0  0  0  0
 19 41  1  0  0  0  0
 19 42  1  0  0  0  0
 19 43  1  0  0  0  0
M  CHG  1   1   1
M  END
