 xtb: 6.7.1 (edcfbbe)
          12202406483D

 41 43  0     0  0            999 V2000
    1.7058   -0.0751   -1.7718 O   0  0  0  0  0  0  0  0  0  0  0  0
    2.7643   -0.2350   -1.2083 C   0  0  0  0  0  0  0  0  0  0  0  0
    2.9143   -0.7877    0.1355 C   0  0  0  0  0  0  0  0  0  0  0  0
    4.1444   -0.9074    0.7914 C   0  0  0  0  0  0  0  0  0  0  0  0
    4.1982   -1.4427    2.0631 C   0  0  0  0  0  0  0  0  0  0  0  0
    3.0385   -1.8655    2.6973 C   0  0  0  0  0  0  0  0  0  0  0  0
    1.8138   -1.7488    2.0577 C   0  0  0  0  0  0  0  0  0  0  0  0
    1.7504   -1.2136    0.7875 C   0  0  0  0  0  0  0  0  0  0  0  0
    4.0645    0.1789   -1.9509 C   0  0  0  0  0  0  0  0  0  0  0  0
    3.7284    0.5530   -3.2954 N   0  0  0  0  0  0  0  0  0  0  0  0
    3.9321   -0.2272   -4.3998 C   0  0  0  0  0  0  0  0  0  0  0  0
    3.2998    0.3732   -5.4383 C   0  0  0  0  0  0  0  0  0  0  0  0
    2.7097    1.5057   -4.9561 N   0  0  0  0  0  0  0  0  0  0  0  0
    2.9672    1.5988   -3.6468 C   0  0  0  0  0  0  0  0  0  0  0  0
    2.5057    2.6831   -2.7605 C   0  0  0  0  0  0  0  0  0  0  0  0
    1.8750    2.4078   -5.7194 C   0  0  0  0  0  0  0  0  0  0  0  0
    0.4717    2.4843   -5.1578 C   0  0  0  0  0  0  0  0  0  0  0  0
   -0.1782    1.3327   -4.7324 C   0  0  0  0  0  0  0  0  0  0  0  0
   -1.4646    1.4074   -4.2288 C   0  0  0  0  0  0  0  0  0  0  0  0
   -2.1133    2.6285   -4.1559 C   0  0  0  0  0  0  0  0  0  0  0  0
   -1.4713    3.7773   -4.5858 C   0  0  0  0  0  0  0  0  0  0  0  0
   -0.1804    3.7071   -5.0800 C   0  0  0  0  0  0  0  0  0  0  0  0
    5.0597   -0.5823    0.3227 H   0  0  0  0  0  0  0  0  0  0  0  0
    5.1489   -1.5327    2.5653 H   0  0  0  0  0  0  0  0  0  0  0  0
    3.0921   -2.2849    3.6901 H   0  0  0  0  0  0  0  0  0  0  0  0
    0.9119   -2.0758    2.5499 H   0  0  0  0  0  0  0  0  0  0  0  0
    0.8071   -1.1152    0.2721 H   0  0  0  0  0  0  0  0  0  0  0  0
    4.5277    1.0152   -1.4210 H   0  0  0  0  0  0  0  0  0  0  0  0
    4.7620   -0.6586   -1.9820 H   0  0  0  0  0  0  0  0  0  0  0  0
    4.5014   -1.1328   -4.3658 H   0  0  0  0  0  0  0  0  0  0  0  0
    3.2275    0.0797   -6.4653 H   0  0  0  0  0  0  0  0  0  0  0  0
    1.5464    2.4132   -2.3161 H   0  0  0  0  0  0  0  0  0  0  0  0
    3.2151    2.8572   -1.9552 H   0  0  0  0  0  0  0  0  0  0  0  0
    2.3668    3.6043   -3.3200 H   0  0  0  0  0  0  0  0  0  0  0  0
    2.3298    3.4035   -5.7304 H   0  0  0  0  0  0  0  0  0  0  0  0
    1.8483    2.0380   -6.7481 H   0  0  0  0  0  0  0  0  0  0  0  0
    0.3164    0.3740   -4.7902 H   0  0  0  0  0  0  0  0  0  0  0  0
   -1.9603    0.5086   -3.8976 H   0  0  0  0  0  0  0  0  0  0  0  0
   -3.1182    2.6842   -3.7681 H   0  0  0  0  0  0  0  0  0  0  0  0
   -1.9733    4.7307   -4.5356 H   0  0  0  0  0  0  0  0  0  0  0  0
    0.3165    4.6055   -5.4158 H   0  0  0  0  0  0  0  0  0  0  0  0
  1  2  2  0  0  0  0
  2  3  1  0  0  0  0
  3  4  4  0  0  0  0
  4  5  4  0  0  0  0
  5  6  4  0  0  0  0
  6  7  4  0  0  0  0
  3  8  4  0  0  0  0
  7  8  4  0  0  0  0
  2  9  1  0  0  0  0
  9 10  1  0  0  0  0
 10 11  1  0  0  0  0
 11 12  2  0  0  0  0
 12 13  4  0  0  0  0
 10 14  4  0  0  0  0
 13 14  4  0  0  0  0
 14 15  1  0  0  0  0
 13 16  1  0  0  0  0
 16 17  1  0  0  0  0
 17 18  4  0  0  0  0
 18 19  4  0  0  0  0
 19 20  4  0  0  0  0
 20 21  4  0  0  0  0
 17 22  4  0  0  0  0
 21 22  4  0  0  0  0
  4 23  1  0  0  0  0
  5 24  1  0  0  0  0
  6 25  1  0  0  0  0
  7 26  1  0  0  0  0
  8 27  1  0  0  0  0
  9 28  1  0  0  0  0
  9 29  1  0  0  0  0
 11 30  1  0  0  0  0
 12 31  1  0  0  0  0
 15 32  1  0  0  0  0
 15 33  1  0  0  0  0
 15 34  1  0  0  0  0
 16 35  1  0  0  0  0
 16 36  1  0  0  0  0
 18 37  1  0  0  0  0
 19 38  1  0  0  0  0
 20 39  1  0  0  0  0
 21 40  1  0  0  0  0
 22 41  1  0  0  0  0
M  CHG  1   1   1
M  END
