20

Cl         1.13932        0.26395       -0.49588
C          2.77098        0.10929        0.18332
C          3.15545       -1.34493        0.43879
C          2.82577       -2.35596       -0.66169
N          3.26626       -1.91810       -2.04005
C          4.75781       -1.82151       -2.20123
C          2.66907       -2.80834       -3.10370
H          3.46290        0.57439       -0.52511
H          2.81017        0.68432        1.11350
H          4.22794       -1.38475        0.66498
H          2.65158       -1.68196        1.35418
H          3.30468       -3.32028       -0.45576
H          1.74379       -2.52291       -0.70848
H          2.86178       -0.98702       -2.21680
H          5.19437       -2.80448       -2.00574
H          4.96909       -1.49621       -3.22345
H          5.13604       -1.07707       -1.49772
H          1.58096       -2.77430       -3.00359
H          2.96251       -2.41367       -4.08008
H          3.04706       -3.82401       -2.95970
