 xtb: 6.7.1 (edcfbbe)
          12202406483D

 24 23  0     0  0            999 V2000
    1.1313   -0.1382   -0.1012 C   0  0  0  0  0  0  0  0  0  0  0  0
    0.4810   -0.4926    1.2251 C   0  0  0  0  0  0  0  0  0  0  0  0
    0.9365    0.3800    2.3435 N   0  0  0  0  0  0  0  0  0  0  0  0
    0.5542    1.8175    2.1607 C   0  0  0  0  0  0  0  0  0  0  0  0
   -0.9316    2.0249    2.1350 C   0  0  0  0  0  0  0  0  0  0  0  0
   -1.5976    2.6203    3.1073 C   0  0  0  0  0  0  0  0  0  0  0  0
    0.4797   -0.1320    3.6676 C   0  0  0  0  0  0  0  0  0  0  0  0
    1.2646   -1.3502    4.1214 C   0  0  0  0  0  0  0  0  0  0  0  0
    0.7870    0.8151   -0.4914 H   0  0  0  0  0  0  0  0  0  0  0  0
    0.8709   -0.8993   -0.8316 H   0  0  0  0  0  0  0  0  0  0  0  0
    2.2159   -0.1190   -0.0178 H   0  0  0  0  0  0  0  0  0  0  0  0
   -0.6046   -0.4174    1.1578 H   0  0  0  0  0  0  0  0  0  0  0  0
    0.7384   -1.5201    1.4849 H   0  0  0  0  0  0  0  0  0  0  0  0
    1.9629    0.3433    2.3446 H   0  0  0  0  0  0  0  0  0  0  0  0
    0.9927    2.3854    2.9842 H   0  0  0  0  0  0  0  0  0  0  0  0
    0.9962    2.1699    1.2268 H   0  0  0  0  0  0  0  0  0  0  0  0
   -1.4457    1.6994    1.2423 H   0  0  0  0  0  0  0  0  0  0  0  0
   -2.6582    2.7843    3.0434 H   0  0  0  0  0  0  0  0  0  0  0  0
   -1.1143    2.9858    3.9983 H   0  0  0  0  0  0  0  0  0  0  0  0
    0.6103    0.6685    4.3978 H   0  0  0  0  0  0  0  0  0  0  0  0
   -0.5858   -0.3549    3.5951 H   0  0  0  0  0  0  0  0  0  0  0  0
    2.3307   -1.1377    4.1645 H   0  0  0  0  0  0  0  0  0  0  0  0
    0.9420   -1.6208    5.1228 H   0  0  0  0  0  0  0  0  0  0  0  0
    1.1018   -2.2151    3.4848 H   0  0  0  0  0  0  0  0  0  0  0  0
  1  2  1  0  0  0  0
  2  3  1  0  0  0  0
  3  4  1  0  0  0  0
  4  5  1  0  0  0  0
  5  6  2  0  0  0  0
  3  7  1  0  0  0  0
  7  8  1  0  0  0  0
  1  9  1  0  0  0  0
  1 10  1  0  0  0  0
  1 11  1  0  0  0  0
  2 12  1  0  0  0  0
  2 13  1  0  0  0  0
  3 14  1  0  0  0  0
  4 15  1  0  0  0  0
  4 16  1  0  0  0  0
  5 17  1  0  0  0  0
  6 18  1  0  0  0  0
  6 19  1  0  0  0  0
  7 20  1  0  0  0  0
  7 21  1  0  0  0  0
  8 22  1  0  0  0  0
  8 23  1  0  0  0  0
  8 24  1  0  0  0  0
M  CHG  1   1   1
M  END
