 xtb: 6.7.1 (edcfbbe)
          12202406483D

 33 34  0     0  0            999 V2000
    1.1472    0.0102    0.6163 C   0  0  0  0  0  0  0  0  0  0  0  0
    0.3581    1.2020    1.1460 C   0  0  0  0  0  0  0  0  0  0  0  0
    0.7776    2.5312    0.5184 C   0  0  0  0  0  0  0  0  0  0  0  0
    0.4054    2.6664   -0.9660 C   0  0  0  0  0  0  0  0  0  0  0  0
   -1.0347    2.7136   -1.1335 N   0  0  0  0  0  0  0  0  0  0  0  0
   -1.7272    1.5906   -1.3667 C   0  0  0  0  0  0  0  0  0  0  0  0
   -3.0990    1.5965   -1.4500 C   0  0  0  0  0  0  0  0  0  0  0  0
   -3.8084    2.7950   -1.2983 C   0  0  0  0  0  0  0  0  0  0  0  0
   -3.0524    3.9515   -1.0571 C   0  0  0  0  0  0  0  0  0  0  0  0
   -1.6845    3.8755   -0.9737 C   0  0  0  0  0  0  0  0  0  0  0  0
   -5.2646    2.8395   -1.3936 C   0  0  0  0  0  0  0  0  0  0  0  0
   -5.9139    3.9291   -1.9803 C   0  0  0  0  0  0  0  0  0  0  0  0
   -7.2990    3.9114   -2.0528 C   0  0  0  0  0  0  0  0  0  0  0  0
   -8.0354    2.9235   -1.5811 N   0  0  0  0  0  0  0  0  0  0  0  0
   -7.4299    1.8951   -1.0183 C   0  0  0  0  0  0  0  0  0  0  0  0
   -6.0513    1.7936   -0.9040 C   0  0  0  0  0  0  0  0  0  0  0  0
    0.9842   -0.1558   -0.4464 H   0  0  0  0  0  0  0  0  0  0  0  0
    0.8517   -0.8931    1.1421 H   0  0  0  0  0  0  0  0  0  0  0  0
    2.2115    0.1599    0.7768 H   0  0  0  0  0  0  0  0  0  0  0  0
   -0.7140    1.0366    1.0033 H   0  0  0  0  0  0  0  0  0  0  0  0
    0.5267    1.2758    2.2209 H   0  0  0  0  0  0  0  0  0  0  0  0
    0.3252    3.3558    1.0735 H   0  0  0  0  0  0  0  0  0  0  0  0
    1.8604    2.6340    0.5940 H   0  0  0  0  0  0  0  0  0  0  0  0
    0.8359    3.5861   -1.3664 H   0  0  0  0  0  0  0  0  0  0  0  0
    0.8032    1.8215   -1.5285 H   0  0  0  0  0  0  0  0  0  0  0  0
   -1.1626    0.6802   -1.5013 H   0  0  0  0  0  0  0  0  0  0  0  0
   -3.6199    0.6750   -1.6555 H   0  0  0  0  0  0  0  0  0  0  0  0
   -3.5396    4.9032   -0.9168 H   0  0  0  0  0  0  0  0  0  0  0  0
   -1.0833    4.7514   -0.7791 H   0  0  0  0  0  0  0  0  0  0  0  0
   -5.3556    4.7485   -2.4049 H   0  0  0  0  0  0  0  0  0  0  0  0
   -7.8422    4.7278   -2.5078 H   0  0  0  0  0  0  0  0  0  0  0  0
   -8.0775    1.1143   -0.6448 H   0  0  0  0  0  0  0  0  0  0  0  0
   -5.6057    0.9433   -0.4122 H   0  0  0  0  0  0  0  0  0  0  0  0
  1  2  1  0  0  0  0
  2  3  1  0  0  0  0
  3  4  1  0  0  0  0
  4  5  1  0  0  0  0
  5  6  4  0  0  0  0
  6  7  4  0  0  0  0
  7  8  4  0  0  0  0
  8  9  4  0  0  0  0
  5 10  4  0  0  0  0
  9 10  2  0  0  0  0
  8 11  1  0  0  0  0
 11 12  4  0  0  0  0
 12 13  4  0  0  0  0
 13 14  4  0  0  0  0
 14 15  4  0  0  0  0
 11 16  4  0  0  0  0
 15 16  4  0  0  0  0
  1 17  1  0  0  0  0
  1 18  1  0  0  0  0
  1 19  1  0  0  0  0
  2 20  1  0  0  0  0
  2 21  1  0  0  0  0
  3 22  1  0  0  0  0
  3 23  1  0  0  0  0
  4 24  1  0  0  0  0
  4 25  1  0  0  0  0
  6 26  1  0  0  0  0
  7 27  1  0  0  0  0
  9 28  1  0  0  0  0
 10 29  1  0  0  0  0
 12 30  1  0  0  0  0
 13 31  1  0  0  0  0
 15 32  1  0  0  0  0
 16 33  1  0  0  0  0
M  CHG  1   1   1
M  END
