 xtb: 6.7.1 (edcfbbe)
          12202406483D

 23 22  0     0  0            999 V2000
    0.9758    0.0911    0.1465 C   0  0  0  0  0  0  0  0  0  0  0  0
    0.2792    0.3449   -1.1792 C   0  0  0  0  0  0  0  0  0  0  0  0
    0.7395   -0.5756   -2.2566 N   0  0  0  0  0  0  0  0  0  0  0  0
    0.3953   -2.0087   -2.0059 C   0  0  0  0  0  0  0  0  0  0  0  0
   -1.0969   -2.2882   -1.9659 C   0  0  0  0  0  0  0  0  0  0  0  0
    0.2919   -0.1096   -3.6024 C   0  0  0  0  0  0  0  0  0  0  0  0
    1.1975    0.9814   -4.1475 C   0  0  0  0  0  0  0  0  0  0  0  0
    0.6760   -0.8497    0.5988 H   0  0  0  0  0  0  0  0  0  0  0  0
    0.7081    0.8838    0.8397 H   0  0  0  0  0  0  0  0  0  0  0  0
    2.0579    0.1033    0.0335 H   0  0  0  0  0  0  0  0  0  0  0  0
   -0.8006    0.2382   -1.0755 H   0  0  0  0  0  0  0  0  0  0  0  0
    0.4916    1.3638   -1.5065 H   0  0  0  0  0  0  0  0  0  0  0  0
    1.7656   -0.5253   -2.2579 H   0  0  0  0  0  0  0  0  0  0  0  0
    0.8575   -2.5963   -2.8023 H   0  0  0  0  0  0  0  0  0  0  0  0
    0.8528   -2.3053   -1.0613 H   0  0  0  0  0  0  0  0  0  0  0  0
   -1.5935   -1.9814   -2.8816 H   0  0  0  0  0  0  0  0  0  0  0  0
   -1.2384   -3.3602   -1.8581 H   0  0  0  0  0  0  0  0  0  0  0  0
   -1.5815   -1.8115   -1.1192 H   0  0  0  0  0  0  0  0  0  0  0  0
    0.3097   -0.9626   -4.2829 H   0  0  0  0  0  0  0  0  0  0  0  0
   -0.7352    0.2479   -3.5209 H   0  0  0  0  0  0  0  0  0  0  0  0
    2.2210    0.6273   -4.2496 H   0  0  0  0  0  0  0  0  0  0  0  0
    0.8494    1.2712   -5.1347 H   0  0  0  0  0  0  0  0  0  0  0  0
    1.1933    1.8727   -3.5264 H   0  0  0  0  0  0  0  0  0  0  0  0
  1  2  1  0  0  0  0
  2  3  1  0  0  0  0
  3  4  1  0  0  0  0
  4  5  1  0  0  0  0
  3  6  1  0  0  0  0
  6  7  1  0  0  0  0
  1  8  1  0  0  0  0
  1  9  1  0  0  0  0
  1 10  1  0  0  0  0
  2 11  1  0  0  0  0
  2 12  1  0  0  0  0
  3 13  1  0  0  0  0
  4 14  1  0  0  0  0
  4 15  1  0  0  0  0
  5 16  1  0  0  0  0
  5 17  1  0  0  0  0
  5 18  1  0  0  0  0
  6 19  1  0  0  0  0
  6 20  1  0  0  0  0
  7 21  1  0  0  0  0
  7 22  1  0  0  0  0
  7 23  1  0  0  0  0
M  CHG  1   1   1
M  END
