 xtb: 6.7.1 (edcfbbe)
          12202406483D

 21 21  0     0  0            999 V2000
    1.2577   -0.5034    0.3453 C   0  0  0  0  0  0  0  0  0  0  0  0
    0.2578   -0.8811   -0.7451 C   0  0  0  0  0  0  0  0  0  0  0  0
    0.5713    0.1336    1.4599 N   0  0  0  0  0  0  0  0  0  0  0  0
    0.0662   -0.6227    2.4402 C   0  0  0  0  0  0  0  0  0  0  0  0
   -0.6447   -0.0795    3.4999 C   0  0  0  0  0  0  0  0  0  0  0  0
   -0.8254    1.3073    3.5083 C   0  0  0  0  0  0  0  0  0  0  0  0
   -0.3018    2.0741    2.4817 C   0  0  0  0  0  0  0  0  0  0  0  0
    0.3966    1.4573    1.4617 C   0  0  0  0  0  0  0  0  0  0  0  0
   -1.1829   -0.9367    4.5881 C   0  0  0  0  0  0  0  0  0  0  0  0
    2.0008    0.1893   -0.0539 H   0  0  0  0  0  0  0  0  0  0  0  0
    1.7714   -1.3951    0.7095 H   0  0  0  0  0  0  0  0  0  0  0  0
   -0.4896   -1.5745   -0.3670 H   0  0  0  0  0  0  0  0  0  0  0  0
   -0.2460    0.0014   -1.1322 H   0  0  0  0  0  0  0  0  0  0  0  0
    0.7858   -1.3599   -1.5644 H   0  0  0  0  0  0  0  0  0  0  0  0
    0.2382   -1.6877    2.3768 H   0  0  0  0  0  0  0  0  0  0  0  0
   -1.3716    1.7718    4.3151 H   0  0  0  0  0  0  0  0  0  0  0  0
   -0.4295    3.1446    2.4674 H   0  0  0  0  0  0  0  0  0  0  0  0
    0.8220    2.0183    0.6434 H   0  0  0  0  0  0  0  0  0  0  0  0
   -0.6643   -0.7189    5.5215 H   0  0  0  0  0  0  0  0  0  0  0  0
   -2.2379   -0.7254    4.7512 H   0  0  0  0  0  0  0  0  0  0  0  0
   -1.0631   -1.9925    4.3647 H   0  0  0  0  0  0  0  0  0  0  0  0
  1  2  1  0  0  0  0
  1  3  1  0  0  0  0
  3  4  4  0  0  0  0
  4  5  4  0  0  0  0
  5  6  4  0  0  0  0
  6  7  4  0  0  0  0
  3  8  4  0  0  0  0
  7  8  4  0  0  0  0
  5  9  1  0  0  0  0
  1 10  1  0  0  0  0
  1 11  1  0  0  0  0
  2 12  1  0  0  0  0
  2 13  1  0  0  0  0
  2 14  1  0  0  0  0
  4 15  1  0  0  0  0
  6 16  1  0  0  0  0
  7 17  1  0  0  0  0
  8 18  1  0  0  0  0
  9 19  1  0  0  0  0
  9 20  1  0  0  0  0
  9 21  1  0  0  0  0
M  CHG  1   1   1
M  END
