 xtb: 6.7.1 (edcfbbe)
          12202406483D

 20 19  0     0  0            999 V2000
    1.3938    0.2446   -0.9307 Cl  0  0  0  0  0  0  0  0  0  0  0  0
    2.8461    0.0747    0.1314 C   0  0  0  0  0  0  0  0  0  0  0  0
    3.1744   -1.3843    0.4550 C   0  0  0  0  0  0  0  0  0  0  0  0
    2.8509   -2.3843   -0.6593 C   0  0  0  0  0  0  0  0  0  0  0  0
    3.2238   -1.9082   -2.0138 N   0  0  0  0  0  0  0  0  0  0  0  0
    4.6756   -1.7594   -2.1861 C   0  0  0  0  0  0  0  0  0  0  0  0
    2.6628   -2.7844   -3.0550 C   0  0  0  0  0  0  0  0  0  0  0  0
    3.6610    0.5766   -0.3888 H   0  0  0  0  0  0  0  0  0  0  0  0
    2.6301    0.6260    1.0457 H   0  0  0  0  0  0  0  0  0  0  0  0
    4.2281   -1.4333    0.7323 H   0  0  0  0  0  0  0  0  0  0  0  0
    2.6014   -1.7009    1.3266 H   0  0  0  0  0  0  0  0  0  0  0  0
    3.3572   -3.3312   -0.4634 H   0  0  0  0  0  0  0  0  0  0  0  0
    1.7743   -2.5603   -0.6666 H   0  0  0  0  0  0  0  0  0  0  0  0
    2.7545   -0.9811   -2.0874 H   0  0  0  0  0  0  0  0  0  0  0  0
    5.1581   -2.7310   -2.0856 H   0  0  0  0  0  0  0  0  0  0  0  0
    4.8966   -1.3616   -3.1746 H   0  0  0  0  0  0  0  0  0  0  0  0
    5.0866   -1.0842   -1.4408 H   0  0  0  0  0  0  0  0  0  0  0  0
    1.5792   -2.8262   -2.9687 H   0  0  0  0  0  0  0  0  0  0  0  0
    2.9174   -2.4041   -4.0423 H   0  0  0  0  0  0  0  0  0  0  0  0
    3.0655   -3.7911   -2.9520 H   0  0  0  0  0  0  0  0  0  0  0  0
  1  2  1  0  0  0  0
  2  3  1  0  0  0  0
  3  4  1  0  0  0  0
  4  5  1  0  0  0  0
  5  6  1  0  0  0  0
  5  7  1  0  0  0  0
  2  8  1  0  0  0  0
  2  9  1  0  0  0  0
  3 10  1  0  0  0  0
  3 11  1  0  0  0  0
  4 12  1  0  0  0  0
  4 13  1  0  0  0  0
  5 14  1  0  0  0  0
  6 15  1  0  0  0  0
  6 16  1  0  0  0  0
  6 17  1  0  0  0  0
  7 18  1  0  0  0  0
  7 19  1  0  0  0  0
  7 20  1  0  0  0  0
M  CHG  1   1   1
M  END
