24

C          1.12416       -0.14702       -0.10238
C          0.46194       -0.54253        1.20518
N          0.90609        0.35387        2.34434
C          0.54678        1.81719        2.17211
C         -0.92167        2.08813        2.11594
C         -1.62938        2.67144        3.09338
C          0.45889       -0.16221        3.70291
C          1.29999       -1.35187        4.13254
H          0.74459        0.80767       -0.47779
H          0.91308       -0.90097       -0.86785
H          2.21082       -0.07220        0.00641
H         -0.62983       -0.50703        1.13980
H          0.76523       -1.56219        1.45697
H          1.93328        0.33490        2.35234
H          1.02251        2.35080        3.00412
H          1.03777        2.17402        1.26148
H         -1.43951        1.83321        1.19295
H         -2.69348        2.86460        2.96866
H         -1.18442        2.99030        4.03213
H          0.59810        0.64887        4.42572
H         -0.60459       -0.41472        3.64028
H          2.36831       -1.11408        4.10758
H          1.04309       -1.63585        5.15834
H          1.12649       -2.22715        3.50074
