 xtb: 6.7.1 (edcfbbe)
          12202406483D

 28 28  0     0  0            999 V2000
    1.0962    0.4155   -0.0631 C   0  0  0  0  0  0  0  0  0  0  0  0
   -0.0161    0.6629   -0.1407 N   0  0  0  0  0  0  0  0  0  0  0  0
    2.5134    0.1422   -0.0615 C   0  0  0  0  0  0  0  0  0  0  0  0
    2.9464   -0.5922   -1.3390 C   0  0  0  0  0  0  0  0  0  0  0  0
    2.3983    0.0419   -2.6265 C   0  0  0  0  0  0  0  0  0  0  0  0
    2.8525    1.4147   -2.7883 N   0  0  0  0  0  0  0  0  0  0  0  0
    2.0748    2.4229   -2.3827 C   0  0  0  0  0  0  0  0  0  0  0  0
    2.5079    3.7349   -2.4716 C   0  0  0  0  0  0  0  0  0  0  0  0
    3.7674    4.0029   -3.0045 C   0  0  0  0  0  0  0  0  0  0  0  0
    4.5535    2.9385   -3.4247 C   0  0  0  0  0  0  0  0  0  0  0  0
    4.0685    1.6529   -3.2992 C   0  0  0  0  0  0  0  0  0  0  0  0
    1.6476    4.8870   -1.9989 C   0  0  0  0  0  0  0  0  0  0  0  0
    2.0047    6.0265   -2.0970 O   0  0  0  0  0  0  0  0  0  0  0  0
    0.5146    4.4559   -1.4756 O   0  0  0  0  0  0  0  0  0  0  0  0
   -0.3850    5.4504   -0.9784 C   0  0  0  0  0  0  0  0  0  0  0  0
    3.0423    1.0944    0.0505 H   0  0  0  0  0  0  0  0  0  0  0  0
    2.7493   -0.4724    0.8103 H   0  0  0  0  0  0  0  0  0  0  0  0
    4.0366   -0.6311   -1.3710 H   0  0  0  0  0  0  0  0  0  0  0  0
    2.5748   -1.6174   -1.3083 H   0  0  0  0  0  0  0  0  0  0  0  0
    2.7320   -0.5453   -3.4846 H   0  0  0  0  0  0  0  0  0  0  0  0
    1.3067    0.0345   -2.5999 H   0  0  0  0  0  0  0  0  0  0  0  0
    1.0986    2.1904   -1.9786 H   0  0  0  0  0  0  0  0  0  0  0  0
    4.0989    5.0288   -3.0792 H   0  0  0  0  0  0  0  0  0  0  0  0
    5.5325    3.1024   -3.8465 H   0  0  0  0  0  0  0  0  0  0  0  0
    4.6482    0.7969   -3.6133 H   0  0  0  0  0  0  0  0  0  0  0  0
    0.1378    6.1274   -0.3017 H   0  0  0  0  0  0  0  0  0  0  0  0
   -0.7994    6.0264   -1.8068 H   0  0  0  0  0  0  0  0  0  0  0  0
   -1.1696    4.9091   -0.4574 H   0  0  0  0  0  0  0  0  0  0  0  0
  1  2  3  0  0  0  0
  1  3  1  0  0  0  0
  3  4  1  0  0  0  0
  4  5  1  0  0  0  0
  5  6  1  0  0  0  0
  6  7  4  0  0  0  0
  7  8  4  0  0  0  0
  8  9  4  0  0  0  0
  9 10  4  0  0  0  0
  6 11  4  0  0  0  0
 10 11  4  0  0  0  0
  8 12  1  0  0  0  0
 12 13  2  0  0  0  0
 12 14  1  0  0  0  0
 14 15  1  0  0  0  0
  3 16  1  0  0  0  0
  3 17  1  0  0  0  0
  4 18  1  0  0  0  0
  4 19  1  0  0  0  0
  5 20  1  0  0  0  0
  5 21  1  0  0  0  0
  7 22  1  0  0  0  0
  9 23  1  0  0  0  0
 10 24  1  0  0  0  0
 11 25  1  0  0  0  0
 15 26  1  0  0  0  0
 15 27  1  0  0  0  0
 15 28  1  0  0  0  0
M  CHG  1   1   1
M  END
