 xtb: 6.7.1 (edcfbbe)
          12202406483D

 22 22  0     0  0            999 V2000
    1.0660   -0.0714    0.0112 C   0  0  0  0  0  0  0  0  0  0  0  0
    0.5751    0.3803    1.3832 C   0  0  0  0  0  0  0  0  0  0  0  0
    0.9838    1.7432    1.6497 N   0  0  0  0  0  0  0  0  0  0  0  0
    2.2020    2.1280    2.1193 C   0  0  0  0  0  0  0  0  0  0  0  0
    2.2047    3.4890    2.1718 C   0  0  0  0  0  0  0  0  0  0  0  0
    0.9881    3.9138    1.7337 N   0  0  0  0  0  0  0  0  0  0  0  0
    0.2695    2.8405    1.4171 C   0  0  0  0  0  0  0  0  0  0  0  0
    0.5839    5.2946    1.5737 C   0  0  0  0  0  0  0  0  0  0  0  0
    1.0346    5.8354    0.2200 C   0  0  0  0  0  0  0  0  0  0  0  0
    0.6503    0.5537   -0.7752 H   0  0  0  0  0  0  0  0  0  0  0  0
    0.7513   -1.0955   -0.1636 H   0  0  0  0  0  0  0  0  0  0  0  0
    2.1507   -0.0322   -0.0459 H   0  0  0  0  0  0  0  0  0  0  0  0
   -0.5141    0.3301    1.4316 H   0  0  0  0  0  0  0  0  0  0  0  0
    0.9929   -0.2605    2.1621 H   0  0  0  0  0  0  0  0  0  0  0  0
    2.9655    1.4263    2.3864 H   0  0  0  0  0  0  0  0  0  0  0  0
    2.9712    4.1650    2.4916 H   0  0  0  0  0  0  0  0  0  0  0  0
   -0.7365    2.8569    1.0441 H   0  0  0  0  0  0  0  0  0  0  0  0
   -0.5028    5.3499    1.6611 H   0  0  0  0  0  0  0  0  0  0  0  0
    1.0330    5.8774    2.3804 H   0  0  0  0  0  0  0  0  0  0  0  0
    0.5808    5.2744   -0.5935 H   0  0  0  0  0  0  0  0  0  0  0  0
    0.7323    6.8741    0.1297 H   0  0  0  0  0  0  0  0  0  0  0  0
    2.1162    5.7840    0.1218 H   0  0  0  0  0  0  0  0  0  0  0  0
  1  2  1  0  0  0  0
  2  3  1  0  0  0  0
  3  4  4  0  0  0  0
  4  5  2  0  0  0  0
  5  6  4  0  0  0  0
  3  7  4  0  0  0  0
  6  7  4  0  0  0  0
  6  8  1  0  0  0  0
  8  9  1  0  0  0  0
  1 10  1  0  0  0  0
  1 11  1  0  0  0  0
  1 12  1  0  0  0  0
  2 13  1  0  0  0  0
  2 14  1  0  0  0  0
  4 15  1  0  0  0  0
  5 16  1  0  0  0  0
  7 17  1  0  0  0  0
  8 18  1  0  0  0  0
  8 19  1  0  0  0  0
  9 20  1  0  0  0  0
  9 21  1  0  0  0  0
  9 22  1  0  0  0  0
M  CHG  1   1   1
M  END
