 xtb: 6.7.1 (edcfbbe)
          12202406483D

 37 37  0     0  0            999 V2000
   -1.2473   -0.4331    1.1463 C   0  0  0  0  0  0  0  0  0  0  0  0
   -0.6289    0.6667    1.8353 N   0  0  0  0  0  0  0  0  0  0  0  0
   -0.6313    1.9381    1.4580 C   0  0  0  0  0  0  0  0  0  0  0  0
    0.0594    2.6633    2.3386 N   0  0  0  0  0  0  0  0  0  0  0  0
    0.2973    4.0907    2.2879 C   0  0  0  0  0  0  0  0  0  0  0  0
    1.7831    4.4607    2.2116 C   0  0  0  0  0  0  0  0  0  0  0  0
    2.3860    4.4175    0.8034 C   0  0  0  0  0  0  0  0  0  0  0  0
    1.6584    5.1835   -0.0394 F   0  0  0  0  0  0  0  0  0  0  0  0
    3.6220    4.9416    0.8411 F   0  0  0  0  0  0  0  0  0  0  0  0
    2.4451    2.9870    0.1663 C   0  0  0  0  0  0  0  0  0  0  0  0
    2.6001    2.0565    1.1357 F   0  0  0  0  0  0  0  0  0  0  0  0
    1.2361    2.7332   -0.3792 F   0  0  0  0  0  0  0  0  0  0  0  0
    3.5804    2.8055   -0.8891 C   0  0  0  0  0  0  0  0  0  0  0  0
    3.5687    3.8295   -1.7475 F   0  0  0  0  0  0  0  0  0  0  0  0
    4.7491    2.8146   -0.2324 F   0  0  0  0  0  0  0  0  0  0  0  0
    3.4509    1.4577   -1.6723 C   0  0  0  0  0  0  0  0  0  0  0  0
    3.5400    0.4431   -0.7924 F   0  0  0  0  0  0  0  0  0  0  0  0
    2.2316    1.3710   -2.2305 F   0  0  0  0  0  0  0  0  0  0  0  0
    4.5180    1.3026   -2.8011 C   0  0  0  0  0  0  0  0  0  0  0  0
    4.1440    2.0601   -3.8409 F   0  0  0  0  0  0  0  0  0  0  0  0
    5.7162    1.7345   -2.3886 F   0  0  0  0  0  0  0  0  0  0  0  0
    4.6505   -0.1873   -3.2635 C   0  0  0  0  0  0  0  0  0  0  0  0
    5.3088   -0.8910   -2.3516 F   0  0  0  0  0  0  0  0  0  0  0  0
    3.4487   -0.7375   -3.4188 F   0  0  0  0  0  0  0  0  0  0  0  0
    5.2981   -0.2595   -4.4089 F   0  0  0  0  0  0  0  0  0  0  0  0
    0.5039    1.8215    3.3167 C   0  0  0  0  0  0  0  0  0  0  0  0
    0.0748    0.5708    2.9978 C   0  0  0  0  0  0  0  0  0  0  0  0
   -1.7665   -0.0730    0.2612 H   0  0  0  0  0  0  0  0  0  0  0  0
   -1.9598   -0.9327    1.8033 H   0  0  0  0  0  0  0  0  0  0  0  0
   -0.4896   -1.1568    0.8438 H   0  0  0  0  0  0  0  0  0  0  0  0
   -1.1046    2.3224    0.5744 H   0  0  0  0  0  0  0  0  0  0  0  0
   -0.2363    4.5054    1.4289 H   0  0  0  0  0  0  0  0  0  0  0  0
   -0.1152    4.5354    3.1985 H   0  0  0  0  0  0  0  0  0  0  0  0
    1.8983    5.4989    2.5340 H   0  0  0  0  0  0  0  0  0  0  0  0
    2.3936    3.8351    2.8648 H   0  0  0  0  0  0  0  0  0  0  0  0
    1.0745    2.1563    4.1584 H   0  0  0  0  0  0  0  0  0  0  0  0
    0.2221   -0.3588    3.5091 H   0  0  0  0  0  0  0  0  0  0  0  0
  1  2  1  0  0  0  0
  2  3  4  0  0  0  0
  3  4  4  0  0  0  0
  4  5  1  0  0  0  0
  5  6  1  0  0  0  0
  6  7  1  0  0  0  0
  7  8  1  0  0  0  0
  7  9  1  0  0  0  0
  7 10  1  0  0  0  0
 10 11  1  0  0  0  0
 10 12  1  0  0  0  0
 10 13  1  0  0  0  0
 13 14  1  0  0  0  0
 13 15  1  0  0  0  0
 13 16  1  0  0  0  0
 16 17  1  0  0  0  0
 16 18  1  0  0  0  0
 16 19  1  0  0  0  0
 19 20  1  0  0  0  0
 19 21  1  0  0  0  0
 19 22  1  0  0  0  0
 22 23  1  0  0  0  0
 22 24  1  0  0  0  0
 22 25  1  0  0  0  0
  4 26  4  0  0  0  0
  2 27  4  0  0  0  0
 26 27  2  0  0  0  0
  1 28  1  0  0  0  0
  1 29  1  0  0  0  0
  1 30  1  0  0  0  0
  3 31  1  0  0  0  0
  5 32  1  0  0  0  0
  5 33  1  0  0  0  0
  6 34  1  0  0  0  0
  6 35  1  0  0  0  0
 26 36  1  0  0  0  0
 27 37  1  0  0  0  0
M  CHG  1   1   1
M  END
