 xtb: 6.7.1 (edcfbbe)
          12202406483D

 56 60  0     0  0            999 V2000
    1.0396   -0.8438    0.8950 C   0  0  0  0  0  0  0  0  0  0  0  0
    1.0438    0.3932    0.2734 C   0  0  0  0  0  0  0  0  0  0  0  0
   -0.1383    0.9409   -0.1947 C   0  0  0  0  0  0  0  0  0  0  0  0
   -1.3324    0.2495   -0.0442 C   0  0  0  0  0  0  0  0  0  0  0  0
   -1.3332   -0.9891    0.5847 C   0  0  0  0  0  0  0  0  0  0  0  0
   -0.1503   -1.5361    1.0487 C   0  0  0  0  0  0  0  0  0  0  0  0
   -2.6346    0.8541   -0.5204 C   0  0  0  0  0  0  0  0  0  0  0  0
   -3.3171    1.4685    0.6029 N   0  0  0  0  0  0  0  0  0  0  0  0
   -4.2166    0.8660    1.3744 C   0  0  0  0  0  0  0  0  0  0  0  0
   -4.5067    1.6401    2.4179 N   0  0  0  0  0  0  0  0  0  0  0  0
   -3.7639    2.7882    2.3181 C   0  0  0  0  0  0  0  0  0  0  0  0
   -3.0115    2.6796    1.1689 C   0  0  0  0  0  0  0  0  0  0  0  0
   -2.0396    3.6317    0.6301 C   0  0  0  0  0  0  0  0  0  0  0  0
   -2.1753    4.1431   -0.6585 C   0  0  0  0  0  0  0  0  0  0  0  0
   -1.2457    5.0438   -1.1461 C   0  0  0  0  0  0  0  0  0  0  0  0
   -0.1793    5.4397   -0.3554 C   0  0  0  0  0  0  0  0  0  0  0  0
   -0.0504    4.9454    0.9326 C   0  0  0  0  0  0  0  0  0  0  0  0
   -0.9777    4.0480    1.4287 C   0  0  0  0  0  0  0  0  0  0  0  0
   -3.8041    3.9036    3.2621 C   0  0  0  0  0  0  0  0  0  0  0  0
   -3.6219    3.6994    4.6285 C   0  0  0  0  0  0  0  0  0  0  0  0
   -3.6550    4.7741    5.4986 C   0  0  0  0  0  0  0  0  0  0  0  0
   -3.8668    6.0551    5.0161 C   0  0  0  0  0  0  0  0  0  0  0  0
   -4.0329    6.2644    3.6564 C   0  0  0  0  0  0  0  0  0  0  0  0
   -3.9989    5.1964    2.7798 C   0  0  0  0  0  0  0  0  0  0  0  0
   -5.5614    1.3583    3.3745 C   0  0  0  0  0  0  0  0  0  0  0  0
   -6.9054    1.4539    2.6901 C   0  0  0  0  0  0  0  0  0  0  0  0
   -7.4007    2.7014    2.3302 C   0  0  0  0  0  0  0  0  0  0  0  0
   -8.6196    2.8042    1.6843 C   0  0  0  0  0  0  0  0  0  0  0  0
   -9.3496    1.6631    1.3940 C   0  0  0  0  0  0  0  0  0  0  0  0
   -8.8584    0.4185    1.7496 C   0  0  0  0  0  0  0  0  0  0  0  0
   -7.6363    0.3129    2.3917 C   0  0  0  0  0  0  0  0  0  0  0  0
    1.9624   -1.2714    1.2547 H   0  0  0  0  0  0  0  0  0  0  0  0
    1.9690    0.9338    0.1480 H   0  0  0  0  0  0  0  0  0  0  0  0
   -0.1281    1.9027   -0.6857 H   0  0  0  0  0  0  0  0  0  0  0  0
   -2.2587   -1.5359    0.6990 H   0  0  0  0  0  0  0  0  0  0  0  0
   -0.1572   -2.5037    1.5259 H   0  0  0  0  0  0  0  0  0  0  0  0
   -2.4406    1.6145   -1.2770 H   0  0  0  0  0  0  0  0  0  0  0  0
   -3.2894    0.0858   -0.9365 H   0  0  0  0  0  0  0  0  0  0  0  0
   -4.6591   -0.0911    1.1820 H   0  0  0  0  0  0  0  0  0  0  0  0
   -3.0215    3.8598   -1.2687 H   0  0  0  0  0  0  0  0  0  0  0  0
   -1.3564    5.4388   -2.1440 H   0  0  0  0  0  0  0  0  0  0  0  0
    0.5465    6.1383   -0.7411 H   0  0  0  0  0  0  0  0  0  0  0  0
    0.7742    5.2595    1.5529 H   0  0  0  0  0  0  0  0  0  0  0  0
   -0.8788    3.6560    2.4295 H   0  0  0  0  0  0  0  0  0  0  0  0
   -3.4211    2.7072    5.0073 H   0  0  0  0  0  0  0  0  0  0  0  0
   -3.5104    4.6101    6.5552 H   0  0  0  0  0  0  0  0  0  0  0  0
   -3.8954    6.8900    5.6984 H   0  0  0  0  0  0  0  0  0  0  0  0
   -4.1902    7.2621    3.2774 H   0  0  0  0  0  0  0  0  0  0  0  0
   -4.1327    5.3550    1.7204 H   0  0  0  0  0  0  0  0  0  0  0  0
   -5.4087    0.3576    3.7856 H   0  0  0  0  0  0  0  0  0  0  0  0
   -5.4957    2.0935    4.1779 H   0  0  0  0  0  0  0  0  0  0  0  0
   -6.8351    3.5921    2.5660 H   0  0  0  0  0  0  0  0  0  0  0  0
   -9.0027    3.7758    1.4135 H   0  0  0  0  0  0  0  0  0  0  0  0
  -10.3029    1.7447    0.8959 H   0  0  0  0  0  0  0  0  0  0  0  0
   -9.4268   -0.4717    1.5300 H   0  0  0  0  0  0  0  0  0  0  0  0
   -7.2605   -0.6595    2.6765 H   0  0  0  0  0  0  0  0  0  0  0  0
  1  2  4  0  0  0  0
  2  3  4  0  0  0  0
  3  4  4  0  0  0  0
  4  5  4  0  0  0  0
  1  6  4  0  0  0  0
  5  6  4  0  0  0  0
  4  7  1  0  0  0  0
  7  8  1  0  0  0  0
  8  9  4  0  0  0  0
  9 10  4  0  0  0  0
 10 11  1  0  0  0  0
  8 12  1  0  0  0  0
 11 12  4  0  0  0  0
 12 13  1  0  0  0  0
 13 14  4  0  0  0  0
 14 15  4  0  0  0  0
 15 16  4  0  0  0  0
 16 17  4  0  0  0  0
 13 18  4  0  0  0  0
 17 18  4  0  0  0  0
 11 19  1  0  0  0  0
 19 20  4  0  0  0  0
 20 21  4  0  0  0  0
 21 22  4  0  0  0  0
 22 23  4  0  0  0  0
 19 24  4  0  0  0  0
 23 24  4  0  0  0  0
 10 25  1  0  0  0  0
 25 26  1  0  0  0  0
 26 27  4  0  0  0  0
 27 28  4  0  0  0  0
 28 29  4  0  0  0  0
 29 30  4  0  0  0  0
 26 31  4  0  0  0  0
 30 31  4  0  0  0  0
  1 32  1  0  0  0  0
  2 33  1  0  0  0  0
  3 34  1  0  0  0  0
  5 35  1  0  0  0  0
  6 36  1  0  0  0  0
  7 37  1  0  0  0  0
  7 38  1  0  0  0  0
  9 39  1  0  0  0  0
 14 40  1  0  0  0  0
 15 41  1  0  0  0  0
 16 42  1  0  0  0  0
 17 43  1  0  0  0  0
 18 44  1  0  0  0  0
 20 45  1  0  0  0  0
 21 46  1  0  0  0  0
 22 47  1  0  0  0  0
 23 48  1  0  0  0  0
 24 49  1  0  0  0  0
 25 50  1  0  0  0  0
 25 51  1  0  0  0  0
 27 52  1  0  0  0  0
 28 53  1  0  0  0  0
 29 54  1  0  0  0  0
 30 55  1  0  0  0  0
 31 56  1  0  0  0  0
M  CHG  1   1   1
M  END
