39

C          0.68250        0.11937        0.51765
C          0.55516        1.28754       -0.44786
C          1.17704        1.01613       -1.82009
C          0.56393       -0.14868       -2.60375
C         -0.93161       -0.03344       -2.90202
C         -1.43621        1.22484       -3.61595
N         -1.03934        1.39142       -5.08179
C         -1.09128        0.08025       -5.90814
C         -0.77886        0.39107       -7.39776
N         -0.48450        1.82448       -7.65944
C          0.64909        2.22319       -6.78563
C          0.36699        2.02255       -5.27129
C         -1.67002        2.60959       -7.23735
C         -2.05480        2.38574       -5.75290
H          0.09464       -0.74142        0.18596
H          0.31598        0.40870        1.50781
H          1.72652       -0.19276        0.62142
H         -0.49962        1.56353       -0.55245
H          1.05983        2.15654       -0.00835
H          1.11740        1.93390       -2.41502
H          2.24742        0.81360       -1.68741
H          1.11887       -0.28582       -3.53649
H          0.72814       -1.07861       -2.04519
H         -1.25134       -0.92889       -3.44746
H         -1.46649       -0.09288       -1.94492
H         -2.53247        1.18283       -3.60375
H         -1.14285        2.14059       -3.09178
H         -2.09466       -0.34052       -5.78505
H         -0.33692       -0.59719       -5.49775
H          0.07073       -0.22127       -7.72570
H         -1.62264        0.06979       -8.02151
H          1.54405        1.65410       -7.06776
H          0.90554        3.27381       -6.97161
H          1.10272        1.34524       -4.83921
H          0.36837        2.97681       -4.73407
H         -1.48538        3.67743       -7.41013
H         -2.52493        2.35825       -7.87773
H         -3.04877        1.93290       -5.66810
H         -2.01296        3.31863       -5.18025
