81

O          1.04917        2.39521        0.80905
C          0.68652        1.37650        0.25551
N          1.44176        0.38447       -0.31205
C          2.89220        0.38269       -0.31249
C          3.48338       -0.18723        0.98420
C          3.21902       -1.68091        1.22051
C          3.87459       -2.61957        0.20140
C          5.39563       -2.74155        0.34011
C          5.86938       -3.52450        1.57154
C          5.39722       -4.98454        1.65577
C          5.63089       -5.83278        0.39883
C          7.10247       -5.97194       -0.00413
C          7.84901       -7.06889        0.76696
C          7.66062       -8.47890        0.18878
C          8.24704       -8.69591       -1.21183
N          9.69086       -8.94622       -1.18907
C         10.67914       -7.96144       -1.21318
C         10.60634       -6.57865       -1.36822
C         11.81498       -5.87864       -1.28097
C         13.03498       -6.54140       -1.05756
C         13.10368       -7.93543       -0.92690
C         11.89562       -8.62445       -1.02050
N         11.59420       -9.98646       -0.98568
C         10.28776      -10.13340       -1.16533
N          9.66365      -11.29935       -1.33745
C         12.56945      -11.05876       -0.82475
C         12.64797      -11.47836        0.62137
C         11.71429      -12.36994        1.17420
C         11.81060      -12.77116        2.50825
C         12.84247      -12.29027        3.30803
C         13.77501      -11.40301        2.77747
C         13.67688      -10.99518        1.44496
C          0.66267       -0.61984       -0.81873
O          0.99653       -1.64984       -1.37482
C         -0.72464       -0.24414       -0.55337
C         -0.71047        0.97856        0.09309
C         -1.87270        1.61152        0.48725
C         -3.07898        0.95970        0.21166
C         -3.09335       -0.29184       -0.43941
C         -1.90195       -0.91018       -0.83223
H          3.24959       -0.16844       -1.18728
H          3.22712        1.42135       -0.41824
H          4.56274        0.00005        0.99007
H          3.07152        0.36874        1.83603
H          3.55643       -1.94005        2.23026
H          2.13818       -1.86067        1.21923
H          3.41395       -3.60935        0.29149
H          3.64625       -2.28612       -0.81590
H          5.79092       -3.21950       -0.56393
H          5.84981       -1.74468        0.36197
H          6.96544       -3.50077        1.59188
H          5.55304       -3.00457        2.48320
H          5.89024       -5.45894        2.51264
H          4.32481       -4.99801        1.88510
H          5.18931       -6.82419        0.55379
H          5.07715       -5.39284       -0.43853
H          7.14219       -6.16479       -1.07992
H          7.62740       -5.02208        0.13706
H          8.91581       -6.82902        0.79319
H          7.52399       -7.06913        1.81414
H          8.11211       -9.20030        0.88124
H          6.58828       -8.70360        0.15829
H          7.75661       -9.56433       -1.66281
H          8.04244       -7.86686       -1.89335
H          9.66794       -6.06927       -1.54192
H         11.81051       -4.79315       -1.38487
H         13.95058       -5.95296       -0.99050
H         14.04562       -8.44247       -0.76614
H          8.66648      -11.34531       -1.47293
H         10.17916      -12.16100       -1.41160
H         12.29241      -11.90910       -1.45701
H         13.54890      -10.72792       -1.18824
H         10.90629      -12.78332        0.58122
H         11.08601      -13.46768        2.92478
H         12.92332      -12.61123        4.34427
H         14.58461      -11.03424        3.40381
H         14.42606      -10.30800        1.05814
H         -1.84680        2.57187        0.99216
H         -4.02038        1.42119        0.50595
H         -4.04598       -0.78115       -0.63628
H         -1.89879       -1.87392       -1.33073
