28

C          0.92903        0.06934        0.01246
N         -0.33194        0.06934        0.01246
C          2.44903        0.06934        0.01246
C          2.98059       -0.55571       -1.28312
C          2.43206        0.04415       -2.58334
N          2.88624        1.44781       -2.75812
C          2.05990        2.47473       -2.42652
C          2.47579        3.79637       -2.57134
C          3.73543        4.05468       -3.11045
C          4.55508        2.99333       -3.47737
C          4.10975        1.69024       -3.29008
C          1.62022        4.92929       -2.15469
O          1.88143        6.08967       -2.41174
O          0.57533        4.46973       -1.42864
C         -0.28026        5.50228       -0.92334
H          2.80817        1.09819        0.11968
H          2.80988       -0.49957        0.87607
H          4.07514       -0.49058       -1.27674
H          2.73115       -1.62473       -1.28035
H          2.80430       -0.51975       -3.44723
H          1.33908        0.02217       -2.63782
H          1.07757        2.21335       -2.04202
H          4.08050        5.08110       -3.24509
H          5.53769        3.18432       -3.90577
H          4.72225        0.83447       -3.56335
H          0.27977        6.17215       -0.26325
H         -0.73488        6.05831       -1.74878
H         -1.07499        5.02673       -0.34211
