47

C          1.03795       -0.28153       -0.54271
C          0.92103       -1.45251        0.42116
C          1.29955       -1.09683        1.86150
C          0.44069       -0.01147        2.52022
C         -1.05723       -0.32331        2.61043
C         -1.41888       -1.57473        3.41875
C         -0.98290       -1.55510        4.88865
C         -1.56217       -0.41141        5.72983
C         -3.09188       -0.38090        5.83080
C         -3.73274       -1.62254        6.46216
C         -3.29130       -1.93038        7.89757
C         -3.58724       -0.83174        8.92448
C         -5.06794       -0.46744        9.09042
C         -5.98632       -1.61220        9.50330
N         -5.57757       -2.16157       10.81756
H          0.31008        0.50206       -0.31296
H          0.84981       -0.61755       -1.56751
H          2.04078        0.15603       -0.50922
H         -0.09452       -1.86074        0.38077
H          1.58854       -2.25199        0.07725
H          1.26652       -2.00908        2.46846
H          2.34514       -0.76382        1.87762
H          0.83492        0.18097        3.52497
H          0.56676        0.93051        1.97333
H         -1.56768        0.54693        3.03937
H         -1.46755       -0.43140        1.59956
H         -2.50393       -1.72186        3.36391
H         -0.98043       -2.45708        2.93784
H         -1.25316       -2.51498        5.34420
H          0.11106       -1.50580        4.94189
H         -1.13226       -0.46824        6.73671
H         -1.22153        0.54795        5.32306
H         -3.38457        0.50830        6.40146
H         -3.51981       -0.23899        4.83147
H         -4.82230       -1.50339        6.43491
H         -3.51964       -2.49831        5.83800
H         -3.76978       -2.86388        8.21622
H         -2.21473       -2.13701        7.91090
H         -3.18007       -1.14447        9.89351
H         -3.03468        0.07665        8.65686
H         -5.14066        0.33347        9.83753
H         -5.44464       -0.03807        8.15483
H         -7.01483       -1.25781        9.62230
H         -5.97901       -2.44032        8.79001
H         -5.54633       -1.43171       11.54141
H         -6.23930       -2.88102       11.13816
H         -4.64924       -2.60298       10.77840
