 xtb: 6.7.1 (edcfbbe)
          12202406493D

 30 30  0     0  0            999 V2000
    1.6329    0.0443   -0.8913 C   0  0  0  0  0  0  0  0  0  0  0  0
    1.0276   -1.1109   -1.6810 C   0  0  0  0  0  0  0  0  0  0  0  0
    1.1618   -2.4622   -0.9808 C   0  0  0  0  0  0  0  0  0  0  0  0
    0.4143   -2.5526    0.3570 C   0  0  0  0  0  0  0  0  0  0  0  0
   -1.0055   -2.4397    0.1581 N   0  0  0  0  0  0  0  0  0  0  0  0
   -1.7609   -3.5203   -0.0000 N   0  0  0  0  0  0  0  0  0  0  0  0
   -2.9644   -3.0971   -0.2194 C   0  0  0  0  0  0  0  0  0  0  0  0
   -2.9998   -1.7352   -0.2170 N   0  0  0  0  0  0  0  0  0  0  0  0
   -1.7370   -1.3481    0.0238 C   0  0  0  0  0  0  0  0  0  0  0  0
   -4.1609   -0.8839   -0.3555 C   0  0  0  0  0  0  0  0  0  0  0  0
   -4.8912   -0.6949    0.9803 C   0  0  0  0  0  0  0  0  0  0  0  0
   -3.9695   -0.1171    2.0485 C   0  0  0  0  0  0  0  0  0  0  0  0
   -3.2212    0.8897    1.5648 F   0  0  0  0  0  0  0  0  0  0  0  0
   -4.6250    0.3267    3.1044 F   0  0  0  0  0  0  0  0  0  0  0  0
   -3.0828   -1.0428    2.4774 F   0  0  0  0  0  0  0  0  0  0  0  0
    1.1026    0.2332    0.0400 H   0  0  0  0  0  0  0  0  0  0  0  0
    1.6016    0.9553   -1.4821 H   0  0  0  0  0  0  0  0  0  0  0  0
    2.6721   -0.1655   -0.6539 H   0  0  0  0  0  0  0  0  0  0  0  0
   -0.0228   -0.9023   -1.9076 H   0  0  0  0  0  0  0  0  0  0  0  0
    1.5452   -1.1841   -2.6381 H   0  0  0  0  0  0  0  0  0  0  0  0
    0.8033   -3.2558   -1.6387 H   0  0  0  0  0  0  0  0  0  0  0  0
    2.2142   -2.6529   -0.7725 H   0  0  0  0  0  0  0  0  0  0  0  0
    0.5920   -3.5280    0.8120 H   0  0  0  0  0  0  0  0  0  0  0  0
    0.7423   -1.7641    1.0348 H   0  0  0  0  0  0  0  0  0  0  0  0
   -3.8101   -3.7333   -0.3857 H   0  0  0  0  0  0  0  0  0  0  0  0
   -1.3976   -0.3344    0.1195 H   0  0  0  0  0  0  0  0  0  0  0  0
   -3.8338    0.0856   -0.7402 H   0  0  0  0  0  0  0  0  0  0  0  0
   -4.8444   -1.3391   -1.0754 H   0  0  0  0  0  0  0  0  0  0  0  0
   -5.7210   -0.0000    0.8402 H   0  0  0  0  0  0  0  0  0  0  0  0
   -5.2874   -1.6386    1.3614 H   0  0  0  0  0  0  0  0  0  0  0  0
  1  2  1  0  0  0  0
  2  3  1  0  0  0  0
  3  4  1  0  0  0  0
  4  5  1  0  0  0  0
  5  6  4  0  0  0  0
  6  7  2  0  0  0  0
  7  8  4  0  0  0  0
  5  9  4  0  0  0  0
  8  9  4  0  0  0  0
  8 10  1  0  0  0  0
 10 11  1  0  0  0  0
 11 12  1  0  0  0  0
 12 13  1  0  0  0  0
 12 14  1  0  0  0  0
 12 15  1  0  0  0  0
  1 16  1  0  0  0  0
  1 17  1  0  0  0  0
  1 18  1  0  0  0  0
  2 19  1  0  0  0  0
  2 20  1  0  0  0  0
  3 21  1  0  0  0  0
  3 22  1  0  0  0  0
  4 23  1  0  0  0  0
  4 24  1  0  0  0  0
  7 25  1  0  0  0  0
  9 26  1  0  0  0  0
 10 27  1  0  0  0  0
 10 28  1  0  0  0  0
 11 29  1  0  0  0  0
 11 30  1  0  0  0  0
M  CHG  1   1   1
M  END
