47

C         -0.00793        0.26196       -0.03395
C          0.26973        0.38083       -1.52856
C          0.82724       -0.84235       -2.26429
C          0.16985       -2.16368       -1.93194
O         -0.99204       -2.34026       -1.61542
O          1.09275       -3.16902       -2.04864
C          2.29368       -2.62989       -2.59472
C          2.31685       -1.18430       -2.12300
C          2.87428       -1.05020       -0.69964
C          4.30241       -1.45094       -0.57428
C          5.43235       -0.85538       -1.08767
N          6.52401       -1.51801       -0.56692
C          6.11294       -2.56496        0.16495
N          4.77022       -2.52972        0.18957
C          3.96559       -3.47057        0.97226
C          7.93102       -1.10797       -0.68416
C          8.50555       -0.86425        0.69974
O          8.89052       -1.77718        1.42382
C          8.43600        0.51291        1.22042
C          7.18921        1.06379        1.53863
C          7.11542        2.37186        2.01684
C          8.28557        3.11338        2.18013
C          9.53021        2.55489        1.88073
C          9.61031        1.24374        1.40409
Br         8.18007        4.88614        2.82460
H         -0.63589       -0.59976        0.20423
H         -0.54176        1.15573        0.30802
H          0.90309        0.19723        0.56191
H         -0.68758        0.63694       -2.00230
H          0.93002        1.23907       -1.70302
H          0.63397       -0.68201       -3.33576
H          2.24218       -2.70279       -3.68760
H          3.14682       -3.22333       -2.25639
H          2.92311       -0.57233       -2.80208
H          2.83768        0.00186       -0.39438
H          2.27425       -1.61945        0.01637
H          5.59177        0.00784       -1.71294
H          6.74705       -3.27853        0.68355
H          4.56149       -4.35680        1.20695
H          3.65986       -2.98024        1.90047
H          3.08762       -3.77655        0.39885
H          8.49460       -1.90778       -1.17532
H          8.01181       -0.20728       -1.30086
H          6.27618        0.48288        1.45146
H          6.14993        2.80226        2.27452
H         10.44125        3.13234        2.02580
H         10.58370        0.80780        1.18988
