 xtb: 6.7.1 (edcfbbe)
          12202406493D

 47 49  0     0  0            999 V2000
   -0.9009   -0.9915    0.1061 C   0  0  0  0  0  0  0  0  0  0  0  0
   -0.7736   -0.5692   -1.3551 C   0  0  0  0  0  0  0  0  0  0  0  0
    0.2728   -1.2954   -2.2109 C   0  0  0  0  0  0  0  0  0  0  0  0
    0.3594   -2.8081   -2.0229 C   0  0  0  0  0  0  0  0  0  0  0  0
   -0.4652   -3.5632   -1.6177 O   0  0  0  0  0  0  0  0  0  0  0  0
    1.6048   -3.2166   -2.3858 O   0  0  0  0  0  0  0  0  0  0  0  0
    2.3573   -2.1092   -2.8553 C   0  0  0  0  0  0  0  0  0  0  0  0
    1.7581   -0.9002   -2.1288 C   0  0  0  0  0  0  0  0  0  0  0  0
    2.2467   -0.8160   -0.6675 C   0  0  0  0  0  0  0  0  0  0  0  0
    3.7240   -0.9041   -0.5360 C   0  0  0  0  0  0  0  0  0  0  0  0
    4.6872    0.0418   -0.7460 C   0  0  0  0  0  0  0  0  0  0  0  0
    5.9008   -0.5357   -0.5115 N   0  0  0  0  0  0  0  0  0  0  0  0
    5.6880   -1.7975   -0.1428 C   0  0  0  0  0  0  0  0  0  0  0  0
    4.3823   -2.0510   -0.1620 N   0  0  0  0  0  0  0  0  0  0  0  0
    3.7744   -3.3072    0.1959 C   0  0  0  0  0  0  0  0  0  0  0  0
    7.1663    0.1304   -0.4122 C   0  0  0  0  0  0  0  0  0  0  0  0
    7.6490    0.0337    1.0649 C   0  0  0  0  0  0  0  0  0  0  0  0
    7.0494   -0.7013    1.8154 O   0  0  0  0  0  0  0  0  0  0  0  0
    8.8122    0.8294    1.4400 C   0  0  0  0  0  0  0  0  0  0  0  0
    9.5625    1.5898    0.5347 C   0  0  0  0  0  0  0  0  0  0  0  0
   10.6600    2.3016    0.9680 C   0  0  0  0  0  0  0  0  0  0  0  0
   11.0218    2.2680    2.3121 C   0  0  0  0  0  0  0  0  0  0  0  0
   10.2900    1.5182    3.2264 C   0  0  0  0  0  0  0  0  0  0  0  0
    9.1974    0.8046    2.7887 C   0  0  0  0  0  0  0  0  0  0  0  0
   12.5274    3.2531    2.8949 Br  0  0  0  0  0  0  0  0  0  0  0  0
   -0.9919   -2.0707    0.1843 H   0  0  0  0  0  0  0  0  0  0  0  0
   -1.8073   -0.5530    0.5151 H   0  0  0  0  0  0  0  0  0  0  0  0
   -0.0712   -0.6526    0.7197 H   0  0  0  0  0  0  0  0  0  0  0  0
   -1.7399   -0.7527   -1.8266 H   0  0  0  0  0  0  0  0  0  0  0  0
   -0.5793    0.5038   -1.4177 H   0  0  0  0  0  0  0  0  0  0  0  0
   -0.0287   -1.1583   -3.2587 H   0  0  0  0  0  0  0  0  0  0  0  0
    2.2249   -2.0148   -3.9394 H   0  0  0  0  0  0  0  0  0  0  0  0
    3.4117   -2.2996   -2.6524 H   0  0  0  0  0  0  0  0  0  0  0  0
    1.9788    0.0297   -2.6528 H   0  0  0  0  0  0  0  0  0  0  0  0
    1.9098    0.1323   -0.2481 H   0  0  0  0  0  0  0  0  0  0  0  0
    1.7921   -1.6270   -0.0998 H   0  0  0  0  0  0  0  0  0  0  0  0
    4.5855    1.0661   -1.0401 H   0  0  0  0  0  0  0  0  0  0  0  0
    6.4503   -2.5055    0.1153 H   0  0  0  0  0  0  0  0  0  0  0  0
    4.5505   -4.0577    0.3251 H   0  0  0  0  0  0  0  0  0  0  0  0
    3.2289   -3.2063    1.1356 H   0  0  0  0  0  0  0  0  0  0  0  0
    3.0826   -3.6411   -0.5788 H   0  0  0  0  0  0  0  0  0  0  0  0
    7.9101   -0.3589   -1.0474 H   0  0  0  0  0  0  0  0  0  0  0  0
    7.0515    1.1705   -0.7161 H   0  0  0  0  0  0  0  0  0  0  0  0
    9.3072    1.6244   -0.5123 H   0  0  0  0  0  0  0  0  0  0  0  0
   11.2423    2.8843    0.2718 H   0  0  0  0  0  0  0  0  0  0  0  0
   10.5812    1.4968    4.2643 H   0  0  0  0  0  0  0  0  0  0  0  0
    8.6154    0.2139    3.4804 H   0  0  0  0  0  0  0  0  0  0  0  0
  1  2  1  0  0  0  0
  2  3  1  0  0  0  0
  3  4  1  0  0  0  0
  4  5  2  0  0  0  0
  4  6  1  0  0  0  0
  6  7  1  0  0  0  0
  3  8  1  0  0  0  0
  7  8  1  0  0  0  0
  8  9  1  0  0  0  0
  9 10  1  0  0  0  0
 10 11  2  0  0  0  0
 11 12  4  0  0  0  0
 12 13  4  0  0  0  0
 10 14  1  0  0  0  0
 13 14  4  0  0  0  0
 14 15  1  0  0  0  0
 12 16  1  0  0  0  0
 16 17  1  0  0  0  0
 17 18  2  0  0  0  0
 17 19  1  0  0  0  0
 19 20  4  0  0  0  0
 20 21  4  0  0  0  0
 21 22  4  0  0  0  0
 22 23  4  0  0  0  0
 19 24  4  0  0  0  0
 23 24  4  0  0  0  0
 22 25  1  0  0  0  0
  1 26  1  0  0  0  0
  1 27  1  0  0  0  0
  1 28  1  0  0  0  0
  2 29  1  0  0  0  0
  2 30  1  0  0  0  0
  3 31  1  0  0  0  0
  7 32  1  0  0  0  0
  7 33  1  0  0  0  0
  8 34  1  0  0  0  0
  9 35  1  0  0  0  0
  9 36  1  0  0  0  0
 11 37  1  0  0  0  0
 13 38  1  0  0  0  0
 15 39  1  0  0  0  0
 15 40  1  0  0  0  0
 15 41  1  0  0  0  0
 16 42  1  0  0  0  0
 16 43  1  0  0  0  0
 20 44  1  0  0  0  0
 21 45  1  0  0  0  0
 23 46  1  0  0  0  0
 24 47  1  0  0  0  0
M  CHG  1   1   1
M  END
