40

O          0.74175       -0.18237        0.43380
C          0.14117        0.97578        0.98546
C          0.93834        1.44813        2.19304
C          2.46620        1.33678        2.11842
N          3.21737        2.35509        1.20245
C          2.78940        3.79126        1.58047
C          3.46495        5.05381        1.06585
C          4.33392        5.07771       -0.03581
C          4.91261        6.26244       -0.49208
C          4.62680        7.46569        0.13373
C          3.75081        7.50441        1.22161
C          3.14636        6.30462        1.68267
C          2.19105        6.40258        2.85569
C          3.45845        8.84329        1.85307
C          4.70585        2.13992        1.49942
C          2.93722        2.02043       -0.25486
H          0.06517       -0.63138       -0.11044
H          0.08532        1.74692        0.21373
H         -0.88382        0.73578        1.28875
H          0.60985        2.44855        2.49108
H          0.64297        0.79501        3.02669
H          2.86151        1.50422        3.12899
H          2.78329        0.33187        1.81497
H          2.87002        3.80306        2.67430
H          1.73366        3.86659        1.29767
H          4.60404        4.19015       -0.58920
H          5.58906        6.24916       -1.34451
H          5.08835        8.37858       -0.23938
H          2.75483        6.56455        3.77991
H          1.48593        7.22776        2.71179
H          1.57154        5.51252        2.98461
H          2.41484        9.12392        1.67949
H          3.65917        8.81235        2.92849
H          4.08687        9.63424        1.42938
H          4.93679        1.08195        1.33793
H          5.31416        2.74420        0.82757
H          4.89739        2.41830        2.53997
H          2.93524        0.93403       -0.37447
H          1.98026        2.45639       -0.54462
H          3.72838        2.42209       -0.88696
