30

C          1.67246        0.01520       -0.49828
C          1.10293       -0.87160       -1.59553
C          1.14583       -2.36704       -1.26826
C          0.42459       -2.78537        0.01034
N         -1.02369       -2.65728       -0.08659
N         -1.78694       -3.79526       -0.15759
C         -2.99178       -3.35030       -0.16033
N         -3.06644       -1.97533       -0.08282
C         -1.78923       -1.55974       -0.04529
C         -4.26578       -1.14459       -0.10704
C         -4.74979       -0.73743        1.27266
C         -3.97297        0.44858        1.77667
F         -4.06426        1.48001        0.91303
F         -4.41960        0.85494        2.97683
F         -2.66152        0.14140        1.89900
H          1.04563       -0.00013        0.39806
H          1.72522        1.05297       -0.84281
H          2.68247       -0.30167       -0.22014
H          0.07871       -0.56041       -1.82488
H          1.68406       -0.70519       -2.51084
H          0.72342       -2.91893       -2.11686
H          2.19648       -2.67184       -1.18620
H          0.66088       -3.83550        0.22237
H          0.76000       -2.20866        0.87762
H         -3.89763       -3.93655       -0.21316
H         -1.44157       -0.53631        0.01158
H         -4.07281       -0.28006       -0.75196
H         -5.05137       -1.73207       -0.59869
H         -5.80787       -0.45872        1.21510
H         -4.66487       -1.57135        1.97735
