38

C          1.78877        0.26579        0.10328
C          0.91409        0.78081       -1.03244
C          0.95987       -0.09360       -2.30443
C          0.36004       -1.52480       -2.19413
N         -1.17000       -1.78886       -2.26215
C         -1.79537       -1.39029       -3.65108
C         -1.17546       -2.06535       -4.86551
C         -1.44018       -3.32763       -2.13175
C         -0.98167       -4.00911       -0.85377
C         -1.99669       -0.97843       -1.23521
C         -1.64889       -1.18062        0.22750
C          0.54544        0.74544       -3.51092
H          1.49009       -0.72714        0.44399
H          1.72374        0.94522        0.95961
H          2.83783        0.21830       -0.20584
H         -0.10750        0.92186       -0.67773
H          1.27842        1.78702       -1.27971
H          2.03219       -0.28376       -2.47074
H          0.80069       -2.14461       -2.98291
H          0.70880       -1.96088       -1.25735
H         -2.85945       -1.65432       -3.60227
H         -1.75122       -0.30569       -3.73869
H         -1.42593       -3.12879       -4.91347
H         -1.58593       -1.61083       -5.77426
H         -0.09084       -1.96105       -4.91583
H         -2.51660       -3.47787       -2.27101
H         -0.90922       -3.80474       -2.96096
H         -1.62816       -3.78290       -0.00636
H         -1.04862       -5.09493       -0.99282
H          0.05411       -3.79364       -0.58808
H         -1.88294        0.07476       -1.50925
H         -3.05005       -1.24071       -1.39273
H         -0.61345       -1.46279        0.40813
H         -1.84322       -0.25501        0.78094
H         -2.30027       -1.93362        0.68031
H          1.26377        1.56041       -3.66370
H          0.54530        0.15991       -4.43258
H         -0.42910        1.21800       -3.36637
