 xtb: 6.7.1 (edcfbbe)
          12202406493D

 17 17  0     0  0            999 V2000
    1.1729   -0.0729   -0.1344 N   0  0  0  0  0  0  0  0  0  0  0  0
    2.3093   -0.0948   -0.0624 C   0  0  0  0  0  0  0  0  0  0  0  0
    3.7661   -0.1019   -0.0204 C   0  0  0  0  0  0  0  0  0  0  0  0
    4.3006    0.1225   -1.3471 N   0  0  0  0  0  0  0  0  0  0  0  0
    4.8376   -0.8226   -2.1667 C   0  0  0  0  0  0  0  0  0  0  0  0
    5.1527   -0.2032   -3.3389 C   0  0  0  0  0  0  0  0  0  0  0  0
    4.7966    1.1043   -3.2187 N   0  0  0  0  0  0  0  0  0  0  0  0
    4.2806    1.2817   -2.0069 C   0  0  0  0  0  0  0  0  0  0  0  0
    4.9612    2.1218   -4.2235 C   0  0  0  0  0  0  0  0  0  0  0  0
    4.1014    0.6847    0.6649 H   0  0  0  0  0  0  0  0  0  0  0  0
    4.1086   -1.0712    0.3545 H   0  0  0  0  0  0  0  0  0  0  0  0
    4.9604   -1.8462   -1.8756 H   0  0  0  0  0  0  0  0  0  0  0  0
    5.5961   -0.6059   -4.2269 H   0  0  0  0  0  0  0  0  0  0  0  0
    3.9034    2.2097   -1.6203 H   0  0  0  0  0  0  0  0  0  0  0  0
    4.0178    2.6396   -4.3964 H   0  0  0  0  0  0  0  0  0  0  0  0
    5.7067    2.8526   -3.9065 H   0  0  0  0  0  0  0  0  0  0  0  0
    5.2907    1.6640   -5.1533 H   0  0  0  0  0  0  0  0  0  0  0  0
  1  2  3  0  0  0  0
  2  3  1  0  0  0  0
  3  4  1  0  0  0  0
  4  5  4  0  0  0  0
  5  6  2  0  0  0  0
  6  7  4  0  0  0  0
  4  8  4  0  0  0  0
  7  8  4  0  0  0  0
  7  9  1  0  0  0  0
  3 10  1  0  0  0  0
  3 11  1  0  0  0  0
  5 12  1  0  0  0  0
  6 13  1  0  0  0  0
  8 14  1  0  0  0  0
  9 15  1  0  0  0  0
  9 16  1  0  0  0  0
  9 17  1  0  0  0  0
M  CHG  1   1   1
M  END
