38

C         -0.10832        2.12116       -1.61800
C         -0.47997        1.40956       -2.91291
C         -0.04981       -0.05592       -2.91704
O         -0.68817       -0.72379       -1.82055
C         -0.04437       -1.88330       -1.49213
C         -0.01107       -2.98095       -2.34768
C          0.65150       -4.14181       -1.94928
C          1.26642       -4.20177       -0.69599
C          1.19960       -3.10553        0.17425
C          0.53668       -1.94349       -0.22713
C          1.89416       -3.19063        1.48446
O          2.87161       -3.93054        1.61011
C          1.45908       -2.28388        2.62517
N          2.40027       -1.16056        2.77071
C          2.07779        0.18254        2.87014
C          3.25838        0.86564        2.95538
N          4.26909       -0.07889        2.91738
C          3.73574       -1.30791        2.83440
C          5.70211        0.18308        2.96687
H         -0.62896        1.68442       -0.75956
H         -0.38727        3.17808       -1.67409
H          0.96873        2.06277       -1.43154
H         -1.56676        1.47142       -3.04148
H         -0.01451        1.92642       -3.75930
H         -0.35799       -0.52280       -3.85957
H          1.04370       -0.11344       -2.83062
H         -0.50181       -2.94401       -3.31688
H          0.68907       -5.00138       -2.61594
H          1.79208       -5.11067       -0.40565
H          0.48284       -1.05670        0.39394
H          0.43967       -1.91306        2.49049
H          1.47156       -2.86319        3.55504
H          1.04424        0.48442        2.85972
H          3.51220        1.90879        3.03708
H          4.28853       -2.24200        2.81050
H          6.10176       -0.21530        3.90292
H          6.18258       -0.31042        2.11768
H          5.89226        1.25835        2.91483
