 xtb: 6.7.1 (edcfbbe)
          12202406493D

 38 39  0     0  0            999 V2000
   -1.1577    1.8896   -3.9911 C   0  0  0  0  0  0  0  0  0  0  0  0
   -2.1888    0.8564   -3.5553 C   0  0  0  0  0  0  0  0  0  0  0  0
   -1.5452   -0.4901   -3.2404 C   0  0  0  0  0  0  0  0  0  0  0  0
   -0.7274   -0.3262   -2.0882 O   0  0  0  0  0  0  0  0  0  0  0  0
   -0.0157   -1.3660   -1.6256 C   0  0  0  0  0  0  0  0  0  0  0  0
   -0.0080   -2.6505   -2.1786 C   0  0  0  0  0  0  0  0  0  0  0  0
    0.7688   -3.6481   -1.6126 C   0  0  0  0  0  0  0  0  0  0  0  0
    1.5453   -3.3946   -0.5022 C   0  0  0  0  0  0  0  0  0  0  0  0
    1.5526   -2.1116    0.0642 C   0  0  0  0  0  0  0  0  0  0  0  0
    0.7693   -1.1066   -0.5008 C   0  0  0  0  0  0  0  0  0  0  0  0
    2.3905   -1.9070    1.2377 C   0  0  0  0  0  0  0  0  0  0  0  0
    3.0267   -2.7724    1.7949 O   0  0  0  0  0  0  0  0  0  0  0  0
    2.4506   -0.4643    1.8268 C   0  0  0  0  0  0  0  0  0  0  0  0
    3.5087   -0.4265    2.7911 N   0  0  0  0  0  0  0  0  0  0  0  0
    4.6805    0.2642    2.6927 C   0  0  0  0  0  0  0  0  0  0  0  0
    5.4917   -0.1713    3.6935 C   0  0  0  0  0  0  0  0  0  0  0  0
    4.8117   -1.1338    4.3787 N   0  0  0  0  0  0  0  0  0  0  0  0
    3.6181   -1.2785    3.8113 C   0  0  0  0  0  0  0  0  0  0  0  0
    5.3135   -1.8600    5.5134 C   0  0  0  0  0  0  0  0  0  0  0  0
   -0.4171    2.0352   -3.2090 H   0  0  0  0  0  0  0  0  0  0  0  0
   -1.6408    2.8415   -4.1924 H   0  0  0  0  0  0  0  0  0  0  0  0
   -0.6486    1.5645   -4.8956 H   0  0  0  0  0  0  0  0  0  0  0  0
   -2.7117    1.2086   -2.6652 H   0  0  0  0  0  0  0  0  0  0  0  0
   -2.9236    0.7049   -4.3467 H   0  0  0  0  0  0  0  0  0  0  0  0
   -2.3184   -1.2429   -3.0403 H   0  0  0  0  0  0  0  0  0  0  0  0
   -0.9322   -0.8207   -4.0885 H   0  0  0  0  0  0  0  0  0  0  0  0
   -0.6062   -2.8777   -3.0459 H   0  0  0  0  0  0  0  0  0  0  0  0
    0.7619   -4.6344   -2.0495 H   0  0  0  0  0  0  0  0  0  0  0  0
    2.1536   -4.1650   -0.0562 H   0  0  0  0  0  0  0  0  0  0  0  0
    0.7264   -0.1084   -0.0968 H   0  0  0  0  0  0  0  0  0  0  0  0
    2.6462    0.2678    1.0445 H   0  0  0  0  0  0  0  0  0  0  0  0
    1.4860   -0.2519    2.2961 H   0  0  0  0  0  0  0  0  0  0  0  0
    4.8522    1.0052    1.9391 H   0  0  0  0  0  0  0  0  0  0  0  0
    6.4860    0.1280    3.9551 H   0  0  0  0  0  0  0  0  0  0  0  0
    2.8560   -1.9582    4.1378 H   0  0  0  0  0  0  0  0  0  0  0  0
    5.4135   -1.1964    6.3738 H   0  0  0  0  0  0  0  0  0  0  0  0
    4.6316   -2.6693    5.7638 H   0  0  0  0  0  0  0  0  0  0  0  0
    6.2927   -2.2790    5.2822 H   0  0  0  0  0  0  0  0  0  0  0  0
  1  2  1  0  0  0  0
  2  3  1  0  0  0  0
  3  4  1  0  0  0  0
  4  5  1  0  0  0  0
  5  6  4  0  0  0  0
  6  7  4  0  0  0  0
  7  8  4  0  0  0  0
  8  9  4  0  0  0  0
  5 10  4  0  0  0  0
  9 10  4  0  0  0  0
  9 11  1  0  0  0  0
 11 12  2  0  0  0  0
 11 13  1  0  0  0  0
 13 14  1  0  0  0  0
 14 15  4  0  0  0  0
 15 16  2  0  0  0  0
 16 17  4  0  0  0  0
 14 18  4  0  0  0  0
 17 18  4  0  0  0  0
 17 19  1  0  0  0  0
  1 20  1  0  0  0  0
  1 21  1  0  0  0  0
  1 22  1  0  0  0  0
  2 23  1  0  0  0  0
  2 24  1  0  0  0  0
  3 25  1  0  0  0  0
  3 26  1  0  0  0  0
  6 27  1  0  0  0  0
  7 28  1  0  0  0  0
  8 29  1  0  0  0  0
 10 30  1  0  0  0  0
 13 31  1  0  0  0  0
 13 32  1  0  0  0  0
 15 33  1  0  0  0  0
 16 34  1  0  0  0  0
 18 35  1  0  0  0  0
 19 36  1  0  0  0  0
 19 37  1  0  0  0  0
 19 38  1  0  0  0  0
M  CHG  1   1   1
M  END
