17

N          0.99096       -0.09850       -0.01470
C          2.25193       -0.09850       -0.01470
C          3.77193       -0.09850       -0.01470
N          4.30646        0.11130       -1.37059
C          4.85934       -0.85817       -2.19437
C          5.18915       -0.23733       -3.36631
N          4.82316        1.09117       -3.22934
C          4.27761        1.28604       -2.01996
C          4.98069        2.13585       -4.23606
H          4.14469        0.70705        0.62661
H          4.14406       -1.05133        0.37557
H          4.94535       -1.87317       -1.84365
H          5.63474       -0.57204       -4.28794
H          3.88671        2.22456       -1.64068
H          4.01596        2.62496       -4.39474
H          5.71145        2.86421       -3.87473
H          5.32852        1.70469       -5.17842
