40

C          0.87011        0.19065        0.19099
C          0.39412        1.41424       -0.07918
C         -1.02692        1.71956       -0.42821
N         -1.56342        2.63439        0.57212
C         -1.61334        3.96577        0.42358
N         -2.24686        4.49396        1.47924
C         -2.53858        3.48769        2.39408
C         -2.11501        2.28872        1.80322
C         -2.28217        1.05450        2.42720
C         -2.89812        1.07761        3.68566
C         -3.31653        2.28182        4.28311
C         -3.14399        3.51988        3.64861
C         -2.59799        5.90584        1.58376
C         -1.40932        6.74746        1.75218
C         -0.49442        7.51388        1.89324
Si         0.83846        8.83835        2.13567
C          0.02075       10.52635        2.03023
C          2.13648        8.69296        0.79427
C          1.63823        8.64067        3.81677
H          0.24225       -0.69587        0.18134
H          1.92220        0.04377        0.42541
H          1.08684        2.25238       -0.06342
H         -1.07738        2.19869       -1.41181
H         -1.65209        0.82081       -0.46567
H         -1.23631        4.52049       -0.42796
H         -1.95491        0.13037        1.96800
H         -3.05626        0.13945        4.21928
H         -3.78744        2.24820        5.26657
H         -3.46383        4.44455        4.11221
H         -3.29327        6.05656        2.41467
H         -3.13054        6.18066        0.66611
H         -0.74810       10.63152        2.80164
H          0.75776       11.32253        2.17044
H         -0.45273       10.66569        1.05370
H          2.88942        9.47999        0.90119
H          2.64557        7.72612        0.84669
H          1.68416        8.78902       -0.19730
H          2.14636        7.67516        3.89630
H          2.37786        9.42929        3.98620
H          0.89026        8.70074        4.61304
