 xtb: 6.7.1 (edcfbbe)
          12202406493D

 20 20  0     0  0            999 V2000
   -2.3655   -0.0249   -0.0272 C   0  0  0  0  0  0  0  0  0  0  0  0
   -0.9226    0.0205    0.0355 N   0  0  0  0  0  0  0  0  0  0  0  0
   -0.2384   -1.1325    0.0635 C   0  0  0  0  0  0  0  0  0  0  0  0
    1.1350   -1.1395    0.1273 C   0  0  0  0  0  0  0  0  0  0  0  0
    1.8390    0.0677    0.1649 C   0  0  0  0  0  0  0  0  0  0  0  0
    1.1025    1.2500    0.1346 C   0  0  0  0  0  0  0  0  0  0  0  0
   -0.2754    1.1892    0.0697 C   0  0  0  0  0  0  0  0  0  0  0  0
    3.3562   -0.0079    0.2306 C   0  0  0  0  0  0  0  0  0  0  0  0
    3.8767   -1.0898    0.2017 O   0  0  0  0  0  0  0  0  0  0  0  0
    4.0890    1.2884    0.3277 C   0  0  0  0  0  0  0  0  0  0  0  0
   -2.6862   -0.5992   -0.8974 H   0  0  0  0  0  0  0  0  0  0  0  0
   -2.7646   -0.5089    0.8657 H   0  0  0  0  0  0  0  0  0  0  0  0
   -2.7797    0.9783   -0.0962 H   0  0  0  0  0  0  0  0  0  0  0  0
   -0.8109   -2.0484    0.0333 H   0  0  0  0  0  0  0  0  0  0  0  0
    1.6885   -2.0676    0.1472 H   0  0  0  0  0  0  0  0  0  0  0  0
    1.5826    2.2150    0.1586 H   0  0  0  0  0  0  0  0  0  0  0  0
   -0.8719    2.0898    0.0448 H   0  0  0  0  0  0  0  0  0  0  0  0
    3.9088    1.8901   -0.5619 H   0  0  0  0  0  0  0  0  0  0  0  0
    3.7617    1.8511    1.1998 H   0  0  0  0  0  0  0  0  0  0  0  0
    5.1548    1.0910    0.4088 H   0  0  0  0  0  0  0  0  0  0  0  0
  1  2  1  0  0  0  0
  2  3  4  0  0  0  0
  3  4  4  0  0  0  0
  4  5  4  0  0  0  0
  5  6  4  0  0  0  0
  2  7  4  0  0  0  0
  6  7  4  0  0  0  0
  5  8  1  0  0  0  0
  8  9  2  0  0  0  0
  8 10  1  0  0  0  0
  1 11  1  0  0  0  0
  1 12  1  0  0  0  0
  1 13  1  0  0  0  0
  3 14  1  0  0  0  0
  4 15  1  0  0  0  0
  6 16  1  0  0  0  0
  7 17  1  0  0  0  0
 10 18  1  0  0  0  0
 10 19  1  0  0  0  0
 10 20  1  0  0  0  0
M  CHG  1   1   1
M  END
