45

C          0.73540        0.49084        0.26717
O         -0.05479       -0.18079        1.24055
C          0.59758       -0.97518        2.13854
C         -0.23714       -1.68082        3.00500
C          0.29734       -2.54401        3.96401
C          1.68346       -2.71501        4.06971
C          2.52226       -1.98985        3.21552
C          1.97896       -1.12454        2.25403
C          2.18863       -3.68928        5.08258
O          1.39484       -4.22637        5.85597
C          3.65094       -4.10175        5.08229
N          3.92020       -5.11907        4.04506
C          4.79692       -4.95501        2.98633
C          4.72401       -6.08604        2.23439
N          3.83119       -6.93571        2.86890
C          3.37056       -6.35874        4.00189
C          2.42668       -6.95877        4.99524
C          3.46731       -8.27021        2.36679
C          4.64256       -9.19705        2.54446
C          5.46887       -9.51489        1.45419
C          6.57461      -10.35039        1.62119
C          6.86701      -10.87877        2.87602
C          6.05446      -10.57497        3.96528
C          4.94931       -9.73790        3.80252
H          0.05739        1.03585       -0.39647
H          1.29861       -0.22243       -0.34399
H          1.40229        1.22025        0.73793
H         -1.31653       -1.55915        2.93094
H         -0.38532       -3.08111        4.62135
H          3.60299       -2.05611        3.26578
H          2.66034       -0.57339        1.61233
H          4.30808       -3.23734        4.95654
H          3.89995       -4.53509        6.05759
H          5.35818       -4.04123        2.89258
H          5.20406       -6.40564        1.32517
H          2.66555       -6.55802        5.97984
H          1.41820       -6.69328        4.67679
H          2.56379       -8.03832        5.00319
H          2.58399       -8.65494        2.88396
H          3.19483       -8.17347        1.30887
H          5.26048       -9.12269        0.46060
H          7.20808      -10.59687        0.77153
H          7.72563      -11.53456        3.00409
H          6.28186      -10.99706        4.94205
H          4.33228       -9.52524        4.67103
