 xtb: 6.7.1 (edcfbbe)
          12202406493D

 64 65  0     0  0            999 V2000
    2.1672    0.0513    0.0136 C   0  0  0  0  0  0  0  0  0  0  0  0
    1.2973   -0.1149    1.2541 C   0  0  0  0  0  0  0  0  0  0  0  0
    1.5161    0.9836    2.2956 C   0  0  0  0  0  0  0  0  0  0  0  0
    1.1637    2.3971    1.8268 C   0  0  0  0  0  0  0  0  0  0  0  0
   -0.2876    2.5872    1.3806 C   0  0  0  0  0  0  0  0  0  0  0  0
   -1.3381    2.2562    2.4428 C   0  0  0  0  0  0  0  0  0  0  0  0
   -1.2251    3.0659    3.7357 C   0  0  0  0  0  0  0  0  0  0  0  0
   -1.3042    4.5852    3.5616 C   0  0  0  0  0  0  0  0  0  0  0  0
   -2.5694    5.0874    2.8607 C   0  0  0  0  0  0  0  0  0  0  0  0
   -3.8753    4.7630    3.5867 C   0  0  0  0  0  0  0  0  0  0  0  0
   -4.0737    5.5479    4.8886 C   0  0  0  0  0  0  0  0  0  0  0  0
   -4.3153    6.9500    4.6267 N   0  0  0  0  0  0  0  0  0  0  0  0
   -5.4911    7.4347    4.0920 C   0  0  0  0  0  0  0  0  0  0  0  0
   -6.6856    6.8086    3.7609 C   0  0  0  0  0  0  0  0  0  0  0  0
   -7.6951    7.6003    3.2427 C   0  0  0  0  0  0  0  0  0  0  0  0
   -9.1906    6.8804    2.8184 Cl  0  0  0  0  0  0  0  0  0  0  0  0
   -7.5148    8.9905    3.0568 C   0  0  0  0  0  0  0  0  0  0  0  0
   -6.3276    9.6153    3.3960 C   0  0  0  0  0  0  0  0  0  0  0  0
   -5.3176    8.8183    3.9191 C   0  0  0  0  0  0  0  0  0  0  0  0
   -4.0446    9.1145    4.3654 N   0  0  0  0  0  0  0  0  0  0  0  0
   -3.4692    7.9763    4.7817 C   0  0  0  0  0  0  0  0  0  0  0  0
   -2.1155    7.8674    5.3642 C   0  0  0  0  0  0  0  0  0  0  0  0
   -3.4527   10.4353    4.3685 C   0  0  0  0  0  0  0  0  0  0  0  0
   -2.4874   10.6434    3.1958 C   0  0  0  0  0  0  0  0  0  0  0  0
   -3.2011   10.7848    1.8453 C   0  0  0  0  0  0  0  0  0  0  0  0
   -4.0231   12.0572    1.7904 C   0  0  0  0  0  0  0  0  0  0  0  0
   -4.9438   12.3007    2.5302 O   0  0  0  0  0  0  0  0  0  0  0  0
   -3.6063   12.8783    0.8443 O   0  0  0  0  0  0  0  0  0  0  0  0
   -8.7934    9.9225    2.4026 Cl  0  0  0  0  0  0  0  0  0  0  0  0
    1.9024    0.9504   -0.5377 H   0  0  0  0  0  0  0  0  0  0  0  0
    2.0403   -0.8003   -0.6506 H   0  0  0  0  0  0  0  0  0  0  0  0
    3.2174    0.1138    0.2923 H   0  0  0  0  0  0  0  0  0  0  0  0
    0.2462   -0.1482    0.9610 H   0  0  0  0  0  0  0  0  0  0  0  0
    1.5327   -1.0738    1.7221 H   0  0  0  0  0  0  0  0  0  0  0  0
    0.9347    0.7410    3.1877 H   0  0  0  0  0  0  0  0  0  0  0  0
    2.5691    0.9799    2.5871 H   0  0  0  0  0  0  0  0  0  0  0  0
    1.3896    3.0926    2.6389 H   0  0  0  0  0  0  0  0  0  0  0  0
    1.8118    2.6661    0.9909 H   0  0  0  0  0  0  0  0  0  0  0  0
   -0.4128    3.6221    1.0519 H   0  0  0  0  0  0  0  0  0  0  0  0
   -0.4779    1.9556    0.5115 H   0  0  0  0  0  0  0  0  0  0  0  0
   -2.3293    2.3997    2.0056 H   0  0  0  0  0  0  0  0  0  0  0  0
   -1.2588    1.1999    2.7027 H   0  0  0  0  0  0  0  0  0  0  0  0
   -2.0090    2.7341    4.4210 H   0  0  0  0  0  0  0  0  0  0  0  0
   -0.2723    2.8370    4.2152 H   0  0  0  0  0  0  0  0  0  0  0  0
   -1.2138    5.0387    4.5526 H   0  0  0  0  0  0  0  0  0  0  0  0
   -0.4439    4.9173    2.9784 H   0  0  0  0  0  0  0  0  0  0  0  0
   -2.4963    6.1694    2.7110 H   0  0  0  0  0  0  0  0  0  0  0  0
   -2.6160    4.6369    1.8697 H   0  0  0  0  0  0  0  0  0  0  0  0
   -4.7122    4.9719    2.9185 H   0  0  0  0  0  0  0  0  0  0  0  0
   -3.9016    3.7015    3.8274 H   0  0  0  0  0  0  0  0  0  0  0  0
   -4.9424    5.1577    5.4243 H   0  0  0  0  0  0  0  0  0  0  0  0
   -3.1975    5.4470    5.5276 H   0  0  0  0  0  0  0  0  0  0  0  0
   -6.8443    5.7528    3.8999 H   0  0  0  0  0  0  0  0  0  0  0  0
   -6.2065   10.6763    3.2412 H   0  0  0  0  0  0  0  0  0  0  0  0
   -1.4401    7.3488    4.6834 H   0  0  0  0  0  0  0  0  0  0  0  0
   -1.6999    8.8477    5.5739 H   0  0  0  0  0  0  0  0  0  0  0  0
   -2.1482    7.3012    6.2943 H   0  0  0  0  0  0  0  0  0  0  0  0
   -4.2627   11.1632    4.3030 H   0  0  0  0  0  0  0  0  0  0  0  0
   -2.9295   10.5884    5.3148 H   0  0  0  0  0  0  0  0  0  0  0  0
   -1.9105   11.5484    3.3897 H   0  0  0  0  0  0  0  0  0  0  0  0
   -1.7870    9.8086    3.1363 H   0  0  0  0  0  0  0  0  0  0  0  0
   -2.4674   10.8195    1.0413 H   0  0  0  0  0  0  0  0  0  0  0  0
   -3.8704    9.9379    1.6802 H   0  0  0  0  0  0  0  0  0  0  0  0
   -4.1324   13.6949    0.8070 H   0  0  0  0  0  0  0  0  0  0  0  0
  1  2  1  0  0  0  0
  2  3  1  0  0  0  0
  3  4  1  0  0  0  0
  4  5  1  0  0  0  0
  5  6  1  0  0  0  0
  6  7  1  0  0  0  0
  7  8  1  0  0  0  0
  8  9  1  0  0  0  0
  9 10  1  0  0  0  0
 10 11  1  0  0  0  0
 11 12  1  0  0  0  0
 12 13  1  0  0  0  0
 13 14  4  0  0  0  0
 14 15  4  0  0  0  0
 15 16  1  0  0  0  0
 15 17  4  0  0  0  0
 17 18  4  0  0  0  0
 13 19  4  0  0  0  0
 18 19  4  0  0  0  0
 19 20  1  0  0  0  0
 12 21  4  0  0  0  0
 20 21  4  0  0  0  0
 21 22  1  0  0  0  0
 20 23  1  0  0  0  0
 23 24  1  0  0  0  0
 24 25  1  0  0  0  0
 25 26  1  0  0  0  0
 26 27  2  0  0  0  0
 26 28  1  0  0  0  0
 17 29  1  0  0  0  0
  1 30  1  0  0  0  0
  1 31  1  0  0  0  0
  1 32  1  0  0  0  0
  2 33  1  0  0  0  0
  2 34  1  0  0  0  0
  3 35  1  0  0  0  0
  3 36  1  0  0  0  0
  4 37  1  0  0  0  0
  4 38  1  0  0  0  0
  5 39  1  0  0  0  0
  5 40  1  0  0  0  0
  6 41  1  0  0  0  0
  6 42  1  0  0  0  0
  7 43  1  0  0  0  0
  7 44  1  0  0  0  0
  8 45  1  0  0  0  0
  8 46  1  0  0  0  0
  9 47  1  0  0  0  0
  9 48  1  0  0  0  0
 10 49  1  0  0  0  0
 10 50  1  0  0  0  0
 11 51  1  0  0  0  0
 11 52  1  0  0  0  0
 14 53  1  0  0  0  0
 18 54  1  0  0  0  0
 22 55  1  0  0  0  0
 22 56  1  0  0  0  0
 22 57  1  0  0  0  0
 23 58  1  0  0  0  0
 23 59  1  0  0  0  0
 24 60  1  0  0  0  0
 24 61  1  0  0  0  0
 25 62  1  0  0  0  0
 25 63  1  0  0  0  0
 28 64  1  0  0  0  0
M  CHG  1   1   1
M  END
