 xtb: 6.7.1 (edcfbbe)
          12202406493D

 32 33  0     0  0            999 V2000
    1.0091   -0.4147    0.3678 C   0  0  0  0  0  0  0  0  0  0  0  0
    0.6442    0.5629    1.3561 N   0  0  0  0  0  0  0  0  0  0  0  0
   -0.6082    0.7506    1.8515 C   0  0  0  0  0  0  0  0  0  0  0  0
   -0.5454    1.7975    2.7190 C   0  0  0  0  0  0  0  0  0  0  0  0
    0.7443    2.2334    2.7405 N   0  0  0  0  0  0  0  0  0  0  0  0
    1.4455    1.4684    1.9065 C   0  0  0  0  0  0  0  0  0  0  0  0
    1.2212    3.3392    3.5453 C   0  0  0  0  0  0  0  0  0  0  0  0
    2.3553    4.1371    2.9026 C   0  0  0  0  0  0  0  0  0  0  0  0
    2.0231    4.7080    1.5294 C   0  0  0  0  0  0  0  0  0  0  0  0
    0.5583    5.7961    1.5504 S   0  0  0  0  0  0  0  0  0  0  0  0
   -0.5571    4.9598    0.4747 C   0  0  0  0  0  0  0  0  0  0  0  0
   -0.2839    3.4733   -0.1653 S   0  0  0  0  0  0  0  0  0  0  0  0
   -1.6991    5.6532    0.2257 N   0  0  0  0  0  0  0  0  0  0  0  0
   -2.0582    6.9146    0.6863 C   0  0  0  0  0  0  0  0  0  0  0  0
   -3.2123    7.2697    0.2538 N   0  0  0  0  0  0  0  0  0  0  0  0
   -3.6711    6.2405   -0.5302 C   0  0  0  0  0  0  0  0  0  0  0  0
   -2.7620    5.2380   -0.5633 C   0  0  0  0  0  0  0  0  0  0  0  0
    0.5438   -0.1656   -0.5871 H   0  0  0  0  0  0  0  0  0  0  0  0
    0.6670   -1.4028    0.6747 H   0  0  0  0  0  0  0  0  0  0  0  0
    2.0891   -0.4315    0.2414 H   0  0  0  0  0  0  0  0  0  0  0  0
   -1.4427    0.1494    1.5537 H   0  0  0  0  0  0  0  0  0  0  0  0
   -1.3177    2.2520    3.3051 H   0  0  0  0  0  0  0  0  0  0  0  0
    2.4946    1.5588    1.7049 H   0  0  0  0  0  0  0  0  0  0  0  0
    0.3691    3.9992    3.7264 H   0  0  0  0  0  0  0  0  0  0  0  0
    1.5614    2.9518    4.5113 H   0  0  0  0  0  0  0  0  0  0  0  0
    2.5905    4.9563    3.5840 H   0  0  0  0  0  0  0  0  0  0  0  0
    3.2545    3.5252    2.8119 H   0  0  0  0  0  0  0  0  0  0  0  0
    2.8496    5.3243    1.1782 H   0  0  0  0  0  0  0  0  0  0  0  0
    1.8098    3.9304    0.7919 H   0  0  0  0  0  0  0  0  0  0  0  0
   -1.4272    7.5001    1.3239 H   0  0  0  0  0  0  0  0  0  0  0  0
   -4.6249    6.3053   -1.0121 H   0  0  0  0  0  0  0  0  0  0  0  0
   -2.7589    4.2919   -1.0621 H   0  0  0  0  0  0  0  0  0  0  0  0
  1  2  1  0  0  0  0
  2  3  4  0  0  0  0
  3  4  2  0  0  0  0
  4  5  4  0  0  0  0
  2  6  4  0  0  0  0
  5  6  4  0  0  0  0
  5  7  1  0  0  0  0
  7  8  1  0  0  0  0
  8  9  1  0  0  0  0
  9 10  1  0  0  0  0
 10 11  1  0  0  0  0
 11 12  2  0  0  0  0
 11 13  4  0  0  0  0
 13 14  1  0  0  0  0
 14 15  2  0  0  0  0
 15 16  4  0  0  0  0
 13 17  1  0  0  0  0
 16 17  2  0  0  0  0
  1 18  1  0  0  0  0
  1 19  1  0  0  0  0
  1 20  1  0  0  0  0
  3 21  1  0  0  0  0
  4 22  1  0  0  0  0
  6 23  1  0  0  0  0
  7 24  1  0  0  0  0
  7 25  1  0  0  0  0
  8 26  1  0  0  0  0
  8 27  1  0  0  0  0
  9 28  1  0  0  0  0
  9 29  1  0  0  0  0
 14 30  1  0  0  0  0
 16 31  1  0  0  0  0
 17 32  1  0  0  0  0
M  CHG  1   1   1
M  END
