59

C          2.35784        0.34788        0.88949
C          1.74645       -0.94144        1.40440
C          0.54104       -0.90027        2.00647
C         -0.44509       -1.84237        2.63656
N         -0.65520       -3.34117        2.33473
C         -1.15293       -3.63507        0.92148
C         -0.89826       -2.79332       -0.15967
C         -1.29594       -3.08901       -1.48894
C         -2.01157       -4.28761       -1.68718
C         -2.29728       -5.18687       -0.64005
C         -1.82327       -4.83560        0.64774
C         -3.08506       -6.51949       -0.78074
C         -2.19089       -7.70170       -0.33565
C         -4.33506       -6.45883        0.13283
C         -3.60597       -6.88178       -2.18972
O         -2.41645       -4.61220       -2.94181
C         -0.86278       -2.09366       -2.60308
C         -1.39796       -0.67843       -2.27213
C          0.68433       -2.04692       -2.66017
C         -1.33340       -2.40083       -4.04209
C         -1.75385       -3.76363        3.34631
C          0.57291       -4.18543        2.59656
C          2.62034       -2.13445        1.17235
H          1.72437        1.22141        1.07711
H          2.51723        0.28280       -0.19192
H          3.32116        0.53128        1.37703
H          0.12562        0.11230        2.08432
H         -0.25757       -1.77841        3.71725
H         -1.43731       -1.39536        2.47512
H         -0.34287       -1.87990       -0.01726
H         -1.98893       -5.55251        1.44392
H         -1.89205       -7.63323        0.71541
H         -2.71457       -8.65840       -0.45012
H         -1.27542       -7.74849       -0.93699
H         -4.97168       -5.60577       -0.13141
H         -4.94063       -7.36796        0.03864
H         -4.07776       -6.36078        1.19282
H         -4.30389       -6.12864       -2.57183
H         -2.78695       -7.00917       -2.90617
H         -4.15496       -7.83189       -2.17410
H         -3.23233       -4.11053       -3.11748
H         -0.97929       -0.27305       -1.34518
H         -1.14580        0.03582       -3.06498
H         -2.48908       -0.68789       -2.16579
H          1.10007       -3.04262       -2.85576
H          1.03233       -1.37810       -3.45629
H          1.12816       -1.68254       -1.72845
H         -0.95024       -3.36216       -4.40129
H         -2.42546       -2.39505       -4.12253
H         -0.96809       -1.64167       -4.74545
H         -1.86168       -4.85116        3.35813
H         -1.43938       -3.44981        4.34746
H         -2.69340       -3.27424        3.07013
H          1.20731       -4.19604        1.71195
H          1.09685       -3.78304        3.46806
H          0.26388       -5.21611        2.80218
H          2.19681       -2.78019        0.39887
H          3.61412       -1.83524        0.81966
H          2.78434       -2.68677        2.10009
