28

C          0.97812        0.30384        0.07204
C          0.67372       -0.51093       -1.17526
C          1.12874       -1.96914       -1.07928
C          0.49381       -2.78929        0.04869
C         -1.02540       -2.91580       -0.03041
N         -1.46338       -3.60959       -1.24590
C         -1.41832       -4.97859       -1.46346
C         -1.92174       -5.19672       -2.71460
N         -2.26810       -3.95777       -3.22696
C         -1.99463       -3.00730       -2.32084
C         -2.84723       -3.69688       -4.53821
H          0.39567       -0.04414        0.93012
H          0.72439        1.35556       -0.09540
H          2.04088        0.24877        0.32801
H         -0.39755       -0.45558       -1.39408
H          1.18627       -0.04696       -2.02674
H          0.93276       -2.46052       -2.03988
H          2.21786       -1.98920       -0.94620
H          0.93588       -3.79317        0.02672
H          0.76566       -2.35790        1.01858
H         -1.39308       -3.49041        0.82813
H         -1.51243       -1.93610        0.01118
H         -1.02706       -5.62179       -0.69392
H         -2.08030       -6.07940       -3.31024
H         -2.16830       -1.94405       -2.43993
H         -3.85850       -3.30361       -4.40532
H         -2.22862       -2.96122       -5.05922
H         -2.88708       -4.61795       -5.12557
