 xtb: 6.7.1 (edcfbbe)
          12202406503D

 41 40  0     0  0            999 V2000
    0.3096   -1.1640   -0.4086 C   0  0  0  0  0  0  0  0  0  0  0  0
    0.3936   -1.9280    0.9096 C   0  0  0  0  0  0  0  0  0  0  0  0
    1.2821   -1.3435    2.0142 C   0  0  0  0  0  0  0  0  0  0  0  0
    0.8469   -0.0964    2.7188 N   0  0  0  0  0  0  0  0  0  0  0  0
   -0.6299   -0.1178    2.9888 C   0  0  0  0  0  0  0  0  0  0  0  0
   -1.1701   -1.3328    3.7630 C   0  0  0  0  0  0  0  0  0  0  0  0
   -1.9399   -0.9059    5.0107 C   0  0  0  0  0  0  0  0  0  0  0  0
    1.5345    0.0327    4.0483 C   0  0  0  0  0  0  0  0  0  0  0  0
    2.9730   -0.4719    4.1810 C   0  0  0  0  0  0  0  0  0  0  0  0
    3.5212   -0.0441    5.5406 C   0  0  0  0  0  0  0  0  0  0  0  0
    1.0868    1.1305    1.8815 C   0  0  0  0  0  0  0  0  0  0  0  0
    2.4987    1.7107    1.7422 C   0  0  0  0  0  0  0  0  0  0  0  0
    3.4459    0.9972    0.7823 C   0  0  0  0  0  0  0  0  0  0  0  0
   -0.3476   -0.2988   -0.3554 H   0  0  0  0  0  0  0  0  0  0  0  0
   -0.1012   -1.8228   -1.1693 H   0  0  0  0  0  0  0  0  0  0  0  0
    1.2945   -0.8508   -0.7453 H   0  0  0  0  0  0  0  0  0  0  0  0
   -0.6101   -2.1302    1.2789 H   0  0  0  0  0  0  0  0  0  0  0  0
    0.8442   -2.8998    0.6937 H   0  0  0  0  0  0  0  0  0  0  0  0
    1.3788   -2.1183    2.7750 H   0  0  0  0  0  0  0  0  0  0  0  0
    2.2690   -1.1512    1.5995 H   0  0  0  0  0  0  0  0  0  0  0  0
   -0.8563    0.7824    3.5648 H   0  0  0  0  0  0  0  0  0  0  0  0
   -1.1376   -0.0288    2.0288 H   0  0  0  0  0  0  0  0  0  0  0  0
   -1.8456   -1.9043    3.1258 H   0  0  0  0  0  0  0  0  0  0  0  0
   -0.3691   -2.0101    4.0574 H   0  0  0  0  0  0  0  0  0  0  0  0
   -2.7823   -0.2736    4.7432 H   0  0  0  0  0  0  0  0  0  0  0  0
   -2.3278   -1.7811    5.5236 H   0  0  0  0  0  0  0  0  0  0  0  0
   -1.3060   -0.3599    5.7060 H   0  0  0  0  0  0  0  0  0  0  0  0
    1.5016    1.0907    4.3175 H   0  0  0  0  0  0  0  0  0  0  0  0
    0.9395   -0.5093    4.7835 H   0  0  0  0  0  0  0  0  0  0  0  0
    3.0079   -1.5602    4.1235 H   0  0  0  0  0  0  0  0  0  0  0  0
    3.6203   -0.0747    3.4030 H   0  0  0  0  0  0  0  0  0  0  0  0
    2.9062   -0.4328    6.3484 H   0  0  0  0  0  0  0  0  0  0  0  0
    4.5290   -0.4266    5.6689 H   0  0  0  0  0  0  0  0  0  0  0  0
    3.5568    1.0394    5.6256 H   0  0  0  0  0  0  0  0  0  0  0  0
    0.7061    0.9205    0.8843 H   0  0  0  0  0  0  0  0  0  0  0  0
    0.4697    1.9184    2.3197 H   0  0  0  0  0  0  0  0  0  0  0  0
    2.3367    2.7146    1.3420 H   0  0  0  0  0  0  0  0  0  0  0  0
    2.9732    1.8424    2.7129 H   0  0  0  0  0  0  0  0  0  0  0  0
    2.9588    0.8035   -0.1699 H   0  0  0  0  0  0  0  0  0  0  0  0
    4.3007    1.6401    0.5889 H   0  0  0  0  0  0  0  0  0  0  0  0
    3.8360    0.0619    1.1765 H   0  0  0  0  0  0  0  0  0  0  0  0
  1  2  1  0  0  0  0
  2  3  1  0  0  0  0
  3  4  1  0  0  0  0
  4  5  1  0  0  0  0
  5  6  1  0  0  0  0
  6  7  1  0  0  0  0
  4  8  1  0  0  0  0
  8  9  1  0  0  0  0
  9 10  1  0  0  0  0
  4 11  1  0  0  0  0
 11 12  1  0  0  0  0
 12 13  1  0  0  0  0
  1 14  1  0  0  0  0
  1 15  1  0  0  0  0
  1 16  1  0  0  0  0
  2 17  1  0  0  0  0
  2 18  1  0  0  0  0
  3 19  1  0  0  0  0
  3 20  1  0  0  0  0
  5 21  1  0  0  0  0
  5 22  1  0  0  0  0
  6 23  1  0  0  0  0
  6 24  1  0  0  0  0
  7 25  1  0  0  0  0
  7 26  1  0  0  0  0
  7 27  1  0  0  0  0
  8 28  1  0  0  0  0
  8 29  1  0  0  0  0
  9 30  1  0  0  0  0
  9 31  1  0  0  0  0
 10 32  1  0  0  0  0
 10 33  1  0  0  0  0
 10 34  1  0  0  0  0
 11 35  1  0  0  0  0
 11 36  1  0  0  0  0
 12 37  1  0  0  0  0
 12 38  1  0  0  0  0
 13 39  1  0  0  0  0
 13 40  1  0  0  0  0
 13 41  1  0  0  0  0
M  CHG  1   1   1
M  END
