67

C          1.13753       -0.27771        0.64244
C          1.00916        1.23418        0.53962
C          1.48623        1.79472       -0.80212
C          0.72027        1.29784       -2.03196
C         -0.78458        1.58300       -2.02739
C         -1.17350        3.06104       -1.90984
C         -0.60571        3.98320       -2.99538
C         -0.91933        3.57726       -4.43916
C         -2.40478        3.39427       -4.75914
C         -3.24971        4.66932       -4.66810
C         -3.04939        5.64649       -5.83010
C         -3.58080        5.15145       -7.17789
N         -5.04816        4.97160       -7.18238
C         -5.96716        6.01155       -7.30058
C         -5.78837        7.38685       -7.42931
C         -6.95525        8.16305       -7.48282
Cl        -6.74262        9.87426       -7.61193
C         -8.23725        7.57235       -7.42378
C         -8.40127        6.18321       -7.30605
C         -7.23294        5.42711       -7.24012
N         -7.02749        4.05572       -7.08042
C         -5.69942        3.79021       -7.06251
C         -5.06386        2.44753       -6.88764
C         -8.10656        3.07572       -6.83293
C         -8.75131        2.54990       -8.11696
C         -8.01405        1.38096       -8.77099
C         -7.85379        0.16811       -7.88972
O         -6.94714       -0.64304       -7.97338
O         -8.80865        0.03860       -6.95533
Cl        -9.68149        8.52166       -7.48168
H          0.46624       -0.78608       -0.05585
H          0.87734       -0.60912        1.65276
H          2.16283       -0.59953        0.43418
H         -0.02837        1.52789        0.73189
H          1.61120        1.68883        1.33558
H          1.44096        2.88919       -0.76048
H          2.54621        1.54320       -0.93344
H          1.17284        1.74510       -2.92480
H          0.86819        0.21681       -2.14104
H         -1.21724        1.16353       -2.94343
H         -1.25766        1.03298       -1.20518
H         -2.26799        3.13223       -1.91044
H         -0.85964        3.44349       -0.93139
H         -0.97556        4.99925       -2.81452
H          0.48337        4.04525       -2.88427
H         -0.48462        4.32190       -5.11580
H         -0.40297        2.63663       -4.66538
H         -2.47888        2.96348       -5.76215
H         -2.83518        2.64401       -4.08669
H         -4.30832        4.39141       -4.61282
H         -3.03728        5.18995       -3.72812
H         -3.55399        6.58471       -5.57121
H         -1.98612        5.88881       -5.93389
H         -3.33863        5.88652       -7.95535
H         -3.09196        4.22527       -7.48619
H         -4.80132        7.83091       -7.46994
H         -9.38069        5.72345       -7.25864
H         -4.20209        2.38332       -7.55019
H         -4.79086        2.35697       -5.83797
H         -5.77774        1.67681       -7.14996
H         -7.72422        2.28141       -6.18651
H         -8.87389        3.58903       -6.24002
H         -9.77323        2.22757       -7.88181
H         -8.84169        3.36058       -8.84933
H         -8.55754        1.06049       -9.66657
H         -7.01810        1.70876       -9.08712
H         -8.62513       -0.82771       -6.52504
