 xtb: 6.7.1 (edcfbbe)
          12202406503D

 47 49  0     0  0            999 V2000
    3.2405    1.5114   -0.2192 C   0  0  0  0  0  0  0  0  0  0  0  0
    1.9612    0.6977   -0.0802 C   0  0  0  0  0  0  0  0  0  0  0  0
    1.0285    1.2341    1.0268 C   0  0  0  0  0  0  0  0  0  0  0  0
    0.4935    2.5731    0.6810 C   0  0  0  0  0  0  0  0  0  0  0  0
    0.9835    3.7479    1.1119 N   0  0  0  0  0  0  0  0  0  0  0  0
    1.9570    3.9686    2.1571 C   0  0  0  0  0  0  0  0  0  0  0  0
    1.2525    4.2203    3.5043 C   0  0  0  0  0  0  0  0  0  0  0  0
    0.2991    3.1670    3.7512 C   0  0  0  0  0  0  0  0  0  0  0  0
   -0.4589    2.3186    3.8514 N   0  0  0  0  0  0  0  0  0  0  0  0
    0.2858    4.7688    0.4922 C   0  0  0  0  0  0  0  0  0  0  0  0
   -0.6500    4.1582   -0.3575 C   0  0  0  0  0  0  0  0  0  0  0  0
   -0.4925    2.7923   -0.1970 N   0  0  0  0  0  0  0  0  0  0  0  0
   -1.2811    1.8129   -0.9010 C   0  0  0  0  0  0  0  0  0  0  0  0
   -2.8104    2.0885   -0.8260 C   0  0  0  0  0  0  0  0  0  0  0  0
   -3.3821    2.3781   -1.8492 O   0  0  0  0  0  0  0  0  0  0  0  0
   -3.4837    1.9517    0.4670 C   0  0  0  0  0  0  0  0  0  0  0  0
   -2.8298    1.6672    1.6688 C   0  0  0  0  0  0  0  0  0  0  0  0
   -3.5497    1.5434    2.8407 C   0  0  0  0  0  0  0  0  0  0  0  0
   -4.9288    1.6917    2.8342 C   0  0  0  0  0  0  0  0  0  0  0  0
   -5.5913    1.9740    1.6484 C   0  0  0  0  0  0  0  0  0  0  0  0
   -4.8767    2.1069    0.4760 C   0  0  0  0  0  0  0  0  0  0  0  0
   -1.4883    4.9127   -1.1691 C   0  0  0  0  0  0  0  0  0  0  0  0
   -1.3684    6.2851   -1.0824 C   0  0  0  0  0  0  0  0  0  0  0  0
   -0.4473    6.8927   -0.2264 C   0  0  0  0  0  0  0  0  0  0  0  0
    0.3981    6.1504    0.5731 C   0  0  0  0  0  0  0  0  0  0  0  0
    3.0306    2.5439   -0.4925 H   0  0  0  0  0  0  0  0  0  0  0  0
    3.8640    1.0809   -0.9976 H   0  0  0  0  0  0  0  0  0  0  0  0
    3.8118    1.4988    0.7063 H   0  0  0  0  0  0  0  0  0  0  0  0
    1.4321    0.6839   -1.0341 H   0  0  0  0  0  0  0  0  0  0  0  0
    2.2160   -0.3313    0.1734 H   0  0  0  0  0  0  0  0  0  0  0  0
    0.2048    0.5315    1.1660 H   0  0  0  0  0  0  0  0  0  0  0  0
    1.5711    1.2735    1.9705 H   0  0  0  0  0  0  0  0  0  0  0  0
    2.6140    3.1012    2.2291 H   0  0  0  0  0  0  0  0  0  0  0  0
    2.5619    4.8371    1.8874 H   0  0  0  0  0  0  0  0  0  0  0  0
    1.9878    4.2469    4.3111 H   0  0  0  0  0  0  0  0  0  0  0  0
    0.7153    5.1727    3.4903 H   0  0  0  0  0  0  0  0  0  0  0  0
   -1.0203    1.8406   -1.9652 H   0  0  0  0  0  0  0  0  0  0  0  0
   -1.0815    0.8142   -0.5124 H   0  0  0  0  0  0  0  0  0  0  0  0
   -1.7603    1.5433    1.7141 H   0  0  0  0  0  0  0  0  0  0  0  0
   -3.0274    1.3298    3.7599 H   0  0  0  0  0  0  0  0  0  0  0  0
   -5.4857    1.5850    3.7523 H   0  0  0  0  0  0  0  0  0  0  0  0
   -6.6640    2.0878    1.6405 H   0  0  0  0  0  0  0  0  0  0  0  0
   -5.3743    2.3235   -0.4569 H   0  0  0  0  0  0  0  0  0  0  0  0
   -2.1945    4.4569   -1.8419 H   0  0  0  0  0  0  0  0  0  0  0  0
   -1.9994    6.9066   -1.6971 H   0  0  0  0  0  0  0  0  0  0  0  0
   -0.3905    7.9690   -0.1957 H   0  0  0  0  0  0  0  0  0  0  0  0
    1.1157    6.6309    1.2181 H   0  0  0  0  0  0  0  0  0  0  0  0
  1  2  1  0  0  0  0
  2  3  1  0  0  0  0
  3  4  1  0  0  0  0
  4  5  4  0  0  0  0
  5  6  1  0  0  0  0
  6  7  1  0  0  0  0
  7  8  1  0  0  0  0
  8  9  3  0  0  0  0
  5 10  1  0  0  0  0
 10 11  4  0  0  0  0
  4 12  4  0  0  0  0
 11 12  1  0  0  0  0
 12 13  1  0  0  0  0
 13 14  1  0  0  0  0
 14 15  2  0  0  0  0
 14 16  1  0  0  0  0
 16 17  4  0  0  0  0
 17 18  4  0  0  0  0
 18 19  4  0  0  0  0
 19 20  4  0  0  0  0
 16 21  4  0  0  0  0
 20 21  4  0  0  0  0
 11 22  4  0  0  0  0
 22 23  4  0  0  0  0
 23 24  4  0  0  0  0
 10 25  4  0  0  0  0
 24 25  4  0  0  0  0
  1 26  1  0  0  0  0
  1 27  1  0  0  0  0
  1 28  1  0  0  0  0
  2 29  1  0  0  0  0
  2 30  1  0  0  0  0
  3 31  1  0  0  0  0
  3 32  1  0  0  0  0
  6 33  1  0  0  0  0
  6 34  1  0  0  0  0
  7 35  1  0  0  0  0
  7 36  1  0  0  0  0
 13 37  1  0  0  0  0
 13 38  1  0  0  0  0
 17 39  1  0  0  0  0
 18 40  1  0  0  0  0
 19 41  1  0  0  0  0
 20 42  1  0  0  0  0
 21 43  1  0  0  0  0
 22 44  1  0  0  0  0
 23 45  1  0  0  0  0
 24 46  1  0  0  0  0
 25 47  1  0  0  0  0
M  CHG  1   1   1
M  END
