 xtb: 6.7.1 (edcfbbe)
          12202406503D

 35 36  0     0  0            999 V2000
    1.2877    0.5361    1.2086 C   0  0  0  0  0  0  0  0  0  0  0  0
    0.7913   -0.6042    0.4237 C   0  0  0  0  0  0  0  0  0  0  0  0
    1.4259   -1.7446    0.1310 N   0  0  0  0  0  0  0  0  0  0  0  0
    2.7956   -2.0795    0.4675 C   0  0  0  0  0  0  0  0  0  0  0  0
    3.5525   -2.7737   -0.6705 C   0  0  0  0  0  0  0  0  0  0  0  0
    3.5053   -2.0484   -2.0193 C   0  0  0  0  0  0  0  0  0  0  0  0
    3.9109   -0.5859   -1.9306 C   0  0  0  0  0  0  0  0  0  0  0  0
    4.9462   -0.3802   -1.1117 F   0  0  0  0  0  0  0  0  0  0  0  0
    4.2190   -0.0766   -3.1183 F   0  0  0  0  0  0  0  0  0  0  0  0
    2.8990    0.1759   -1.4419 F   0  0  0  0  0  0  0  0  0  0  0  0
    0.5725   -2.5538   -0.5724 C   0  0  0  0  0  0  0  0  0  0  0  0
   -0.5942   -1.8819   -0.7205 C   0  0  0  0  0  0  0  0  0  0  0  0
   -0.4408   -0.6696   -0.1065 N   0  0  0  0  0  0  0  0  0  0  0  0
   -1.4701    0.3552    0.0108 C   0  0  0  0  0  0  0  0  0  0  0  0
   -2.1341    0.2725    1.2716 N   0  0  0  0  0  0  0  0  0  0  0  0
   -3.3703   -0.2107    1.5551 C   0  0  0  0  0  0  0  0  0  0  0  0
   -3.5393   -0.0953    2.9094 C   0  0  0  0  0  0  0  0  0  0  0  0
   -2.3376    0.4664    3.3754 C   0  0  0  0  0  0  0  0  0  0  0  0
   -1.5024    0.6793    2.3837 N   0  0  0  0  0  0  0  0  0  0  0  0
    2.1711    0.2769    1.7816 H   0  0  0  0  0  0  0  0  0  0  0  0
    0.4995    0.8622    1.8966 H   0  0  0  0  0  0  0  0  0  0  0  0
    1.5376    1.3699    0.5520 H   0  0  0  0  0  0  0  0  0  0  0  0
    3.3132   -1.1590    0.7400 H   0  0  0  0  0  0  0  0  0  0  0  0
    2.7951   -2.7416    1.3395 H   0  0  0  0  0  0  0  0  0  0  0  0
    4.5916   -2.8560   -0.3475 H   0  0  0  0  0  0  0  0  0  0  0  0
    3.1782   -3.7868   -0.8181 H   0  0  0  0  0  0  0  0  0  0  0  0
    4.1972   -2.5339   -2.7098 H   0  0  0  0  0  0  0  0  0  0  0  0
    2.5081   -2.0771   -2.4641 H   0  0  0  0  0  0  0  0  0  0  0  0
    0.8433   -3.5352   -0.9007 H   0  0  0  0  0  0  0  0  0  0  0  0
   -1.5003   -2.1691   -1.2126 H   0  0  0  0  0  0  0  0  0  0  0  0
   -0.9918    1.3364   -0.0879 H   0  0  0  0  0  0  0  0  0  0  0  0
   -2.1937    0.2108   -0.7956 H   0  0  0  0  0  0  0  0  0  0  0  0
   -4.0236   -0.5749    0.7887 H   0  0  0  0  0  0  0  0  0  0  0  0
   -4.3966   -0.3660    3.4880 H   0  0  0  0  0  0  0  0  0  0  0  0
   -2.0618    0.7179    4.3792 H   0  0  0  0  0  0  0  0  0  0  0  0
  1  2  1  0  0  0  0
  2  3  4  0  0  0  0
  3  4  1  0  0  0  0
  4  5  1  0  0  0  0
  5  6  1  0  0  0  0
  6  7  1  0  0  0  0
  7  8  1  0  0  0  0
  7  9  1  0  0  0  0
  7 10  1  0  0  0  0
  3 11  1  0  0  0  0
 11 12  2  0  0  0  0
  2 13  4  0  0  0  0
 12 13  1  0  0  0  0
 13 14  1  0  0  0  0
 14 15  1  0  0  0  0
 15 16  4  0  0  0  0
 16 17  2  0  0  0  0
 17 18  4  0  0  0  0
 15 19  1  0  0  0  0
 18 19  2  0  0  0  0
  1 20  1  0  0  0  0
  1 21  1  0  0  0  0
  1 22  1  0  0  0  0
  4 23  1  0  0  0  0
  4 24  1  0  0  0  0
  5 25  1  0  0  0  0
  5 26  1  0  0  0  0
  6 27  1  0  0  0  0
  6 28  1  0  0  0  0
 11 29  1  0  0  0  0
 12 30  1  0  0  0  0
 14 31  1  0  0  0  0
 14 32  1  0  0  0  0
 16 33  1  0  0  0  0
 17 34  1  0  0  0  0
 18 35  1  0  0  0  0
M  CHG  1   1   1
M  END
