60

C          0.76907       -0.10385       -0.57145
C          0.64585       -1.61777       -0.49088
C          1.03395       -2.19055        0.87452
C          0.20443       -1.68800        2.06068
C         -1.30677       -1.93108        1.96008
C         -1.71992       -3.40147        1.87087
N         -1.31304       -4.15129        3.04602
C         -2.03578       -4.48461        4.15451
O         -1.43746       -4.90168        5.14765
C         -3.55163       -4.28954        4.17723
N         -3.94902       -2.90470        4.49660
C         -3.27811       -2.02100        5.33052
C         -4.00470       -0.86473        5.33860
N         -5.11749       -1.08512        4.54232
C         -5.10859       -2.35502        4.10380
C         -6.20990       -0.11758        4.31839
C         -7.04716       -0.46649        3.08808
O         -7.91528       -1.33964        3.14926
N         -6.78320        0.11270        1.88186
C         -5.56242        0.77254        1.44811
C         -4.55418       -0.23093        0.88369
C         -5.01863       -0.95738       -0.38581
C         -5.24868       -0.06082       -1.60751
C         -4.02492        0.72667       -2.08285
C         -2.86663       -0.16027       -2.51336
H          0.04982        0.39349        0.08586
H          0.57242        0.23566       -1.59344
H          1.77624        0.22325       -0.29414
H         -0.37381       -1.91770       -0.75458
H          1.30289       -2.06035       -1.24934
H          0.97718       -3.28421        0.82536
H          2.08791       -1.95384        1.06857
H          0.58859       -2.15688        2.97491
H          0.37477       -0.61244        2.19028
H         -1.77899       -1.47727        2.83882
H         -1.70493       -1.39796        1.09027
H         -2.80483       -3.46045        1.75210
H         -1.26658       -3.88674        1.00176
H         -0.31991       -4.34204        3.15173
H         -3.98502       -4.58078        3.21606
H         -3.97922       -4.94479        4.94421
H         -2.36071       -2.32260        5.80974
H         -3.88059        0.08791        5.82513
H         -5.87940       -2.85135        3.52258
H         -6.86472       -0.14202        5.19679
H         -5.79642        0.89088        4.24537
H         -7.41863       -0.19303        1.14911
H         -5.84103        1.52264        0.70287
H         -5.10917        1.29887        2.29134
H         -3.60707        0.28391        0.69039
H         -4.33987       -0.99028        1.64485
H         -4.28027       -1.72849       -0.63564
H         -5.94831       -1.50037       -0.17587
H         -5.60396       -0.69013       -2.43349
H         -6.06134        0.64439       -1.39864
H         -4.32387        1.34589       -2.93730
H         -3.68757        1.41895       -1.30413
H         -3.18127       -0.86814       -3.28684
H         -2.05611        0.45066       -2.92326
H         -2.46047       -0.72639       -1.67053
