 xtb: 6.7.1 (edcfbbe)
          12202406503D

 45 48  0     0  0            999 V2000
    0.8292   -0.1277    0.8741 C   0  0  0  0  0  0  0  0  0  0  0  0
   -0.1194   -1.1800    0.3280 C   0  0  0  0  0  0  0  0  0  0  0  0
    0.4459   -2.5139    0.3361 N   0  0  0  0  0  0  0  0  0  0  0  0
    1.6033   -2.9098    0.8476 C   0  0  0  0  0  0  0  0  0  0  0  0
    1.7843   -4.2210    0.6713 N   0  0  0  0  0  0  0  0  0  0  0  0
    0.6903   -4.7105   -0.0160 C   0  0  0  0  0  0  0  0  0  0  0  0
   -0.1695   -3.6188   -0.2183 C   0  0  0  0  0  0  0  0  0  0  0  0
   -1.3849   -3.7760   -0.8702 C   0  0  0  0  0  0  0  0  0  0  0  0
   -1.7303   -5.0378   -1.3193 C   0  0  0  0  0  0  0  0  0  0  0  0
   -3.0322   -5.2401   -2.0198 C   0  0  0  0  0  0  0  0  0  0  0  0
   -0.8610   -6.1391   -1.1196 C   0  0  0  0  0  0  0  0  0  0  0  0
    0.3485   -5.9776   -0.4671 C   0  0  0  0  0  0  0  0  0  0  0  0
   -1.2559   -7.4899   -1.6156 C   0  0  0  0  0  0  0  0  0  0  0  0
    3.0072   -4.9138    0.9626 C   0  0  0  0  0  0  0  0  0  0  0  0
    4.1746   -4.2196    0.2242 C   0  0  0  0  0  0  0  0  0  0  0  0
    3.9796   -3.1587   -0.3170 O   0  0  0  0  0  0  0  0  0  0  0  0
    5.4808   -4.8989    0.2440 C   0  0  0  0  0  0  0  0  0  0  0  0
    5.7300   -6.0677    0.9707 C   0  0  0  0  0  0  0  0  0  0  0  0
    6.9861   -6.6399    0.9458 C   0  0  0  0  0  0  0  0  0  0  0  0
    7.9923   -6.0467    0.1943 C   0  0  0  0  0  0  0  0  0  0  0  0
    7.7680   -4.8845   -0.5306 C   0  0  0  0  0  0  0  0  0  0  0  0
    6.5120   -4.3144   -0.5015 C   0  0  0  0  0  0  0  0  0  0  0  0
    9.3150   -6.6619    0.1694 N   0  0  0  0  0  0  0  0  0  0  0  0
    9.4549   -7.6825    0.7985 O   0  0  0  0  0  0  0  0  0  0  0  0
   10.1654   -6.1040   -0.4787 O   0  0  0  0  0  0  0  0  0  0  0  0
    1.0461   -0.2956    1.9261 H   0  0  0  0  0  0  0  0  0  0  0  0
    0.3602    0.8476    0.7822 H   0  0  0  0  0  0  0  0  0  0  0  0
    1.7583   -0.1100    0.3099 H   0  0  0  0  0  0  0  0  0  0  0  0
   -1.0425   -1.2008    0.9169 H   0  0  0  0  0  0  0  0  0  0  0  0
   -0.3836   -0.9430   -0.7072 H   0  0  0  0  0  0  0  0  0  0  0  0
    2.3029   -2.2723    1.3501 H   0  0  0  0  0  0  0  0  0  0  0  0
   -2.0481   -2.9398   -1.0219 H   0  0  0  0  0  0  0  0  0  0  0  0
   -3.5915   -4.3113   -2.0785 H   0  0  0  0  0  0  0  0  0  0  0  0
   -2.8689   -5.6105   -3.0305 H   0  0  0  0  0  0  0  0  0  0  0  0
   -3.6381   -5.9779   -1.4966 H   0  0  0  0  0  0  0  0  0  0  0  0
    0.9990   -6.8249   -0.3183 H   0  0  0  0  0  0  0  0  0  0  0  0
   -0.4847   -8.2252   -1.4066 H   0  0  0  0  0  0  0  0  0  0  0  0
   -2.1812   -7.8145   -1.1421 H   0  0  0  0  0  0  0  0  0  0  0  0
   -1.4314   -7.4664   -2.6897 H   0  0  0  0  0  0  0  0  0  0  0  0
    3.2162   -4.8885    2.0373 H   0  0  0  0  0  0  0  0  0  0  0  0
    2.9124   -5.9501    0.6386 H   0  0  0  0  0  0  0  0  0  0  0  0
    4.9606   -6.5329    1.5656 H   0  0  0  0  0  0  0  0  0  0  0  0
    7.2055   -7.5407    1.4989 H   0  0  0  0  0  0  0  0  0  0  0  0
    8.5752   -4.4493   -1.1003 H   0  0  0  0  0  0  0  0  0  0  0  0
    6.3035   -3.4107   -1.0533 H   0  0  0  0  0  0  0  0  0  0  0  0
  1  2  1  0  0  0  0
  2  3  1  0  0  0  0
  3  4  4  0  0  0  0
  4  5  4  0  0  0  0
  5  6  1  0  0  0  0
  3  7  1  0  0  0  0
  6  7  4  0  0  0  0
  7  8  4  0  0  0  0
  8  9  4  0  0  0  0
  9 10  1  0  0  0  0
  9 11  4  0  0  0  0
  6 12  4  0  0  0  0
 11 12  4  0  0  0  0
 11 13  1  0  0  0  0
  5 14  1  0  0  0  0
 14 15  1  0  0  0  0
 15 16  2  0  0  0  0
 15 17  1  0  0  0  0
 17 18  4  0  0  0  0
 18 19  4  0  0  0  0
 19 20  4  0  0  0  0
 20 21  4  0  0  0  0
 17 22  4  0  0  0  0
 21 22  4  0  0  0  0
 20 23  1  0  0  0  0
 23 24  4  0  0  0  0
 23 25  4  0  0  0  0
 24 25  1  0  0  0  0
  1 26  1  0  0  0  0
  1 27  1  0  0  0  0
  1 28  1  0  0  0  0
  2 29  1  0  0  0  0
  2 30  1  0  0  0  0
  4 31  1  0  0  0  0
  8 32  1  0  0  0  0
 10 33  1  0  0  0  0
 10 34  1  0  0  0  0
 10 35  1  0  0  0  0
 12 36  1  0  0  0  0
 13 37  1  0  0  0  0
 13 38  1  0  0  0  0
 13 39  1  0  0  0  0
 14 40  1  0  0  0  0
 14 41  1  0  0  0  0
 18 42  1  0  0  0  0
 19 43  1  0  0  0  0
 21 44  1  0  0  0  0
 22 45  1  0  0  0  0
M  CHG  1   1   1
M  END
