 xtb: 6.7.1 (edcfbbe)
          12202406503D

 25 25  0     0  0            999 V2000
    1.0893    0.0855   -0.0305 C   0  0  0  0  0  0  0  0  0  0  0  0
    0.6910   -1.0549    0.8230 C   0  0  0  0  0  0  0  0  0  0  0  0
    1.0236   -2.3362    0.6259 N   0  0  0  0  0  0  0  0  0  0  0  0
    1.7954   -2.8620   -0.4703 C   0  0  0  0  0  0  0  0  0  0  0  0
    0.5072   -3.0989    1.6501 C   0  0  0  0  0  0  0  0  0  0  0  0
   -0.1705   -2.2458    2.4766 C   0  0  0  0  0  0  0  0  0  0  0  0
   -0.0492   -0.9848    1.9356 N   0  0  0  0  0  0  0  0  0  0  0  0
   -0.6361    0.2011    2.5038 C   0  0  0  0  0  0  0  0  0  0  0  0
   -0.9230   -2.5016    3.7261 C   0  0  0  0  0  0  0  0  0  0  0  0
    0.7177   -4.5626    1.7314 C   0  0  0  0  0  0  0  0  0  0  0  0
    1.1793    0.9930    0.5607 H   0  0  0  0  0  0  0  0  0  0  0  0
    0.3538    0.2618   -0.8172 H   0  0  0  0  0  0  0  0  0  0  0  0
    2.0504   -0.1064   -0.5001 H   0  0  0  0  0  0  0  0  0  0  0  0
    2.8413   -2.9792   -0.1808 H   0  0  0  0  0  0  0  0  0  0  0  0
    1.4021   -3.8360   -0.7551 H   0  0  0  0  0  0  0  0  0  0  0  0
    1.7333   -2.1972   -1.3279 H   0  0  0  0  0  0  0  0  0  0  0  0
   -1.6225   -0.0363    2.8983 H   0  0  0  0  0  0  0  0  0  0  0  0
   -0.0172    0.5809    3.3188 H   0  0  0  0  0  0  0  0  0  0  0  0
   -0.7411    0.9713    1.7443 H   0  0  0  0  0  0  0  0  0  0  0  0
   -1.9861   -2.3075    3.5867 H   0  0  0  0  0  0  0  0  0  0  0  0
   -0.8056   -3.5364    4.0278 H   0  0  0  0  0  0  0  0  0  0  0  0
   -0.5640   -1.8632    4.5315 H   0  0  0  0  0  0  0  0  0  0  0  0
    0.2007   -5.0763    0.9211 H   0  0  0  0  0  0  0  0  0  0  0  0
    1.7771   -4.8047    1.6676 H   0  0  0  0  0  0  0  0  0  0  0  0
    0.3327   -4.9435    2.6716 H   0  0  0  0  0  0  0  0  0  0  0  0
  1  2  1  0  0  0  0
  2  3  4  0  0  0  0
  3  4  1  0  0  0  0
  3  5  1  0  0  0  0
  5  6  2  0  0  0  0
  2  7  4  0  0  0  0
  6  7  1  0  0  0  0
  7  8  1  0  0  0  0
  6  9  1  0  0  0  0
  5 10  1  0  0  0  0
  1 11  1  0  0  0  0
  1 12  1  0  0  0  0
  1 13  1  0  0  0  0
  4 14  1  0  0  0  0
  4 15  1  0  0  0  0
  4 16  1  0  0  0  0
  8 17  1  0  0  0  0
  8 18  1  0  0  0  0
  8 19  1  0  0  0  0
  9 20  1  0  0  0  0
  9 21  1  0  0  0  0
  9 22  1  0  0  0  0
 10 23  1  0  0  0  0
 10 24  1  0  0  0  0
 10 25  1  0  0  0  0
M  CHG  1   1   1
M  END
