 xtb: 6.7.1 (edcfbbe)
          12202406503D

 70 69  0     0  0            999 V2000
    1.4946   -0.5787   -0.2017 C   0  0  0  0  0  0  0  0  0  0  0  0
    1.5201   -0.0025    1.2091 C   0  0  0  0  0  0  0  0  0  0  0  0
    1.7142    1.5143    1.2390 C   0  0  0  0  0  0  0  0  0  0  0  0
    0.6103    2.3207    0.5516 C   0  0  0  0  0  0  0  0  0  0  0  0
   -0.7942    2.1119    1.1208 C   0  0  0  0  0  0  0  0  0  0  0  0
   -0.9519    2.4636    2.6014 C   0  0  0  0  0  0  0  0  0  0  0  0
   -0.6164    3.9121    2.9630 C   0  0  0  0  0  0  0  0  0  0  0  0
   -1.4136    4.9715    2.1993 C   0  0  0  0  0  0  0  0  0  0  0  0
   -2.9331    4.8595    2.3354 C   0  0  0  0  0  0  0  0  0  0  0  0
   -3.4665    4.9877    3.7634 C   0  0  0  0  0  0  0  0  0  0  0  0
   -3.1583    6.3182    4.4538 C   0  0  0  0  0  0  0  0  0  0  0  0
   -3.6545    7.5619    3.7126 C   0  0  0  0  0  0  0  0  0  0  0  0
   -5.1535    7.5720    3.4065 C   0  0  0  0  0  0  0  0  0  0  0  0
   -6.0681    7.4911    4.6309 C   0  0  0  0  0  0  0  0  0  0  0  0
   -5.8681    8.5968    5.6764 C   0  0  0  0  0  0  0  0  0  0  0  0
   -5.9252   10.0425    5.1720 C   0  0  0  0  0  0  0  0  0  0  0  0
   -7.2610   10.7204    5.1508 N   0  0  0  0  0  0  0  0  0  0  0  0
   -7.7947   10.9525    6.5193 C   0  0  0  0  0  0  0  0  0  0  0  0
   -7.0812   11.9882    7.4254 C   0  0  0  0  0  0  0  0  0  0  0  0
   -7.5838   13.4361    7.2096 C   0  0  0  0  0  0  0  0  0  0  0  0
   -8.8942   13.4178    6.6793 O   0  0  0  0  0  0  0  0  0  0  0  0
   -7.2548   11.5816    8.7529 O   0  0  0  0  0  0  0  0  0  0  0  0
   -7.1146   12.0028    4.4355 C   0  0  0  0  0  0  0  0  0  0  0  0
   -8.2510    9.9061    4.4214 C   0  0  0  0  0  0  0  0  0  0  0  0
    0.6202   -0.2373   -0.7500 H   0  0  0  0  0  0  0  0  0  0  0  0
    1.4655   -1.6653   -0.1642 H   0  0  0  0  0  0  0  0  0  0  0  0
    2.3846   -0.2793   -0.7510 H   0  0  0  0  0  0  0  0  0  0  0  0
    0.5980   -0.2700    1.7282 H   0  0  0  0  0  0  0  0  0  0  0  0
    2.3459   -0.4591    1.7604 H   0  0  0  0  0  0  0  0  0  0  0  0
    1.8022    1.8348    2.2793 H   0  0  0  0  0  0  0  0  0  0  0  0
    2.6608    1.7525    0.7469 H   0  0  0  0  0  0  0  0  0  0  0  0
    0.8720    3.3793    0.6148 H   0  0  0  0  0  0  0  0  0  0  0  0
    0.5886    2.0620   -0.5088 H   0  0  0  0  0  0  0  0  0  0  0  0
   -1.4934    2.7091    0.5309 H   0  0  0  0  0  0  0  0  0  0  0  0
   -1.0817    1.0671    0.9887 H   0  0  0  0  0  0  0  0  0  0  0  0
   -1.9814    2.2467    2.8963 H   0  0  0  0  0  0  0  0  0  0  0  0
   -0.3091    1.8101    3.1942 H   0  0  0  0  0  0  0  0  0  0  0  0
   -0.7756    4.0419    4.0362 H   0  0  0  0  0  0  0  0  0  0  0  0
    0.4444    4.0902    2.7767 H   0  0  0  0  0  0  0  0  0  0  0  0
   -1.0889    5.9572    2.5413 H   0  0  0  0  0  0  0  0  0  0  0  0
   -1.1652    4.9067    1.1384 H   0  0  0  0  0  0  0  0  0  0  0  0
   -3.3910    5.6252    1.7044 H   0  0  0  0  0  0  0  0  0  0  0  0
   -3.2542    3.8936    1.9425 H   0  0  0  0  0  0  0  0  0  0  0  0
   -4.5478    4.8300    3.7413 H   0  0  0  0  0  0  0  0  0  0  0  0
   -3.0442    4.1882    4.3737 H   0  0  0  0  0  0  0  0  0  0  0  0
   -3.5900    6.2915    5.4575 H   0  0  0  0  0  0  0  0  0  0  0  0
   -2.0785    6.4127    4.5771 H   0  0  0  0  0  0  0  0  0  0  0  0
   -3.3891    8.4444    4.3011 H   0  0  0  0  0  0  0  0  0  0  0  0
   -3.1208    7.6425    2.7647 H   0  0  0  0  0  0  0  0  0  0  0  0
   -5.3826    8.4661    2.8182 H   0  0  0  0  0  0  0  0  0  0  0  0
   -5.3863    6.7193    2.7687 H   0  0  0  0  0  0  0  0  0  0  0  0
   -7.1015    7.4567    4.2839 H   0  0  0  0  0  0  0  0  0  0  0  0
   -5.8798    6.5444    5.1377 H   0  0  0  0  0  0  0  0  0  0  0  0
   -6.5707    8.4392    6.4954 H   0  0  0  0  0  0  0  0  0  0  0  0
   -4.8730    8.4639    6.1025 H   0  0  0  0  0  0  0  0  0  0  0  0
   -5.2768   10.6552    5.7992 H   0  0  0  0  0  0  0  0  0  0  0  0
   -5.5323   10.0744    4.1548 H   0  0  0  0  0  0  0  0  0  0  0  0
   -8.8361   11.2692    6.4247 H   0  0  0  0  0  0  0  0  0  0  0  0
   -7.7648   10.0057    7.0620 H   0  0  0  0  0  0  0  0  0  0  0  0
   -5.9969   11.9646    7.2800 H   0  0  0  0  0  0  0  0  0  0  0  0
   -7.5565   13.9367    8.1838 H   0  0  0  0  0  0  0  0  0  0  0  0
   -6.9114   13.9823    6.5357 H   0  0  0  0  0  0  0  0  0  0  0  0
   -9.2905   14.2890    6.7821 H   0  0  0  0  0  0  0  0  0  0  0  0
   -8.1672   11.7296    9.0316 H   0  0  0  0  0  0  0  0  0  0  0  0
   -6.9649   11.8221    3.3725 H   0  0  0  0  0  0  0  0  0  0  0  0
   -8.0135   12.6017    4.5731 H   0  0  0  0  0  0  0  0  0  0  0  0
   -6.2593   12.5553    4.8163 H   0  0  0  0  0  0  0  0  0  0  0  0
   -7.8506    9.6156    3.4521 H   0  0  0  0  0  0  0  0  0  0  0  0
   -8.4983    9.0120    4.9877 H   0  0  0  0  0  0  0  0  0  0  0  0
   -9.1614   10.4830    4.2668 H   0  0  0  0  0  0  0  0  0  0  0  0
  1  2  1  0  0  0  0
  2  3  1  0  0  0  0
  3  4  1  0  0  0  0
  4  5  1  0  0  0  0
  5  6  1  0  0  0  0
  6  7  1  0  0  0  0
  7  8  1  0  0  0  0
  8  9  1  0  0  0  0
  9 10  1  0  0  0  0
 10 11  1  0  0  0  0
 11 12  1  0  0  0  0
 12 13  1  0  0  0  0
 13 14  1  0  0  0  0
 14 15  1  0  0  0  0
 15 16  1  0  0  0  0
 16 17  1  0  0  0  0
 17 18  1  0  0  0  0
 18 19  1  0  0  0  0
 19 20  1  0  0  0  0
 20 21  1  0  0  0  0
 19 22  1  0  0  0  0
 17 23  1  0  0  0  0
 17 24  1  0  0  0  0
  1 25  1  0  0  0  0
  1 26  1  0  0  0  0
  1 27  1  0  0  0  0
  2 28  1  0  0  0  0
  2 29  1  0  0  0  0
  3 30  1  0  0  0  0
  3 31  1  0  0  0  0
  4 32  1  0  0  0  0
  4 33  1  0  0  0  0
  5 34  1  0  0  0  0
  5 35  1  0  0  0  0
  6 36  1  0  0  0  0
  6 37  1  0  0  0  0
  7 38  1  0  0  0  0
  7 39  1  0  0  0  0
  8 40  1  0  0  0  0
  8 41  1  0  0  0  0
  9 42  1  0  0  0  0
  9 43  1  0  0  0  0
 10 44  1  0  0  0  0
 10 45  1  0  0  0  0
 11 46  1  0  0  0  0
 11 47  1  0  0  0  0
 12 48  1  0  0  0  0
 12 49  1  0  0  0  0
 13 50  1  0  0  0  0
 13 51  1  0  0  0  0
 14 52  1  0  0  0  0
 14 53  1  0  0  0  0
 15 54  1  0  0  0  0
 15 55  1  0  0  0  0
 16 56  1  0  0  0  0
 16 57  1  0  0  0  0
 18 58  1  0  0  0  0
 18 59  1  0  0  0  0
 19 60  1  0  0  0  0
 20 61  1  0  0  0  0
 20 62  1  0  0  0  0
 21 63  1  0  0  0  0
 22 64  1  0  0  0  0
 23 65  1  0  0  0  0
 23 66  1  0  0  0  0
 23 67  1  0  0  0  0
 24 68  1  0  0  0  0
 24 69  1  0  0  0  0
 24 70  1  0  0  0  0
M  CHG  1   1   1
M  END
