23

C          0.94051       -0.12599       -0.04725
C          0.38036        0.65266       -1.22730
N          0.90311        0.14686       -2.53815
C          1.25066        1.05304       -3.48928
C          1.70491        0.64173       -4.73678
C          1.79570       -0.71350       -5.01736
C          1.41846       -1.63218       -4.04923
C          0.96300       -1.17972       -2.81590
C         -1.13413        0.72916       -1.35658
O         -1.63254        1.45061       -2.22477
C         -1.99851       -0.14431       -0.48956
H          0.54867       -1.14540        0.01548
H          0.68030        0.37241        0.89309
H          2.03241       -0.18769       -0.10412
H          0.73915        1.68505       -1.11986
H          1.14189        2.10837       -3.25126
H          1.97394        1.37723       -5.49229
H          2.14467       -1.05175       -5.99225
H          1.46883       -2.69882       -4.25929
H          0.64037       -1.88422       -2.05610
H         -1.81898       -1.19423       -0.73326
H         -1.79209        0.04713        0.56547
H         -3.05145        0.08381       -0.67942
