18

F          0.83623       -0.40667       -0.92298
C          2.00722       -0.10088       -0.30113
C          3.05151        0.18531       -1.36326
N          2.62840        1.35988       -2.16973
C          1.81566        1.17629       -3.23920
C          1.40924        2.25737       -4.01220
C          1.83649        3.53477       -3.67591
C          2.66245        3.70881       -2.57307
C          3.05048        2.59996       -1.82992
H          1.83168        0.76604        0.34213
H          2.29702       -0.95561        0.31567
H          4.02978        0.40449       -0.92398
H          3.16004       -0.65918       -2.05238
H          1.49181        0.16265       -3.46015
H          0.75738        2.10472       -4.87019
H          1.52310        4.39303       -4.26929
H          3.00038        4.70456       -2.29424
H          3.69434        2.69643       -0.96024
