 xtb: 6.7.1 (edcfbbe)
          12202406503D

 31 32  0     0  0            999 V2000
    1.9083   -1.2085    0.1003 C   0  0  0  0  0  0  0  0  0  0  0  0
    2.3268   -1.1436    1.5589 C   0  0  0  0  0  0  0  0  0  0  0  0
    1.5343   -0.1744    2.2792 O   0  0  0  0  0  0  0  0  0  0  0  0
    1.9347    1.0672    2.2835 C   0  0  0  0  0  0  0  0  0  0  0  0
    2.9153    1.5351    1.7698 O   0  0  0  0  0  0  0  0  0  0  0  0
    0.9647    1.9540    3.1086 C   0  0  0  0  0  0  0  0  0  0  0  0
    1.2272    3.3257    2.7868 N   0  0  0  0  0  0  0  0  0  0  0  0
    2.4187    3.9077    2.9275 C   0  0  0  0  0  0  0  0  0  0  0  0
    2.4392    5.1048    2.3583 N   0  0  0  0  0  0  0  0  0  0  0  0
    1.2006    5.3248    1.7901 C   0  0  0  0  0  0  0  0  0  0  0  0
    0.4246    4.1798    2.0543 C   0  0  0  0  0  0  0  0  0  0  0  0
   -0.8872    4.0821    1.6077 C   0  0  0  0  0  0  0  0  0  0  0  0
   -1.3863    5.1534    0.8950 C   0  0  0  0  0  0  0  0  0  0  0  0
   -0.6153    6.2897    0.6333 C   0  0  0  0  0  0  0  0  0  0  0  0
    0.6875    6.3994    1.0739 C   0  0  0  0  0  0  0  0  0  0  0  0
    3.5479    6.0181    2.3141 C   0  0  0  0  0  0  0  0  0  0  0  0
    0.8502   -1.4433    0.0180 H   0  0  0  0  0  0  0  0  0  0  0  0
    2.4791   -1.9850   -0.3992 H   0  0  0  0  0  0  0  0  0  0  0  0
    2.1038   -0.2601   -0.3951 H   0  0  0  0  0  0  0  0  0  0  0  0
    2.1362   -2.0883    2.0695 H   0  0  0  0  0  0  0  0  0  0  0  0
    3.3818   -0.8707    1.6487 H   0  0  0  0  0  0  0  0  0  0  0  0
   -0.0671    1.6962    2.8736 H   0  0  0  0  0  0  0  0  0  0  0  0
    1.1459    1.7563    4.1692 H   0  0  0  0  0  0  0  0  0  0  0  0
    3.2496    3.4668    3.4448 H   0  0  0  0  0  0  0  0  0  0  0  0
   -1.4951    3.2142    1.8036 H   0  0  0  0  0  0  0  0  0  0  0  0
   -2.3998    5.1148    0.5288 H   0  0  0  0  0  0  0  0  0  0  0  0
   -1.0532    7.0995    0.0722 H   0  0  0  0  0  0  0  0  0  0  0  0
    1.2786    7.2771    0.8717 H   0  0  0  0  0  0  0  0  0  0  0  0
    4.3995    5.5888    2.8365 H   0  0  0  0  0  0  0  0  0  0  0  0
    3.8274    6.2124    1.2777 H   0  0  0  0  0  0  0  0  0  0  0  0
    3.2741    6.9628    2.7859 H   0  0  0  0  0  0  0  0  0  0  0  0
  1  2  1  0  0  0  0
  2  3  1  0  0  0  0
  3  4  4  0  0  0  0
  4  5  2  0  0  0  0
  4  6  1  0  0  0  0
  6  7  1  0  0  0  0
  7  8  4  0  0  0  0
  8  9  4  0  0  0  0
  9 10  1  0  0  0  0
  7 11  1  0  0  0  0
 10 11  4  0  0  0  0
 11 12  4  0  0  0  0
 12 13  4  0  0  0  0
 13 14  4  0  0  0  0
 10 15  4  0  0  0  0
 14 15  4  0  0  0  0
  9 16  1  0  0  0  0
  1 17  1  0  0  0  0
  1 18  1  0  0  0  0
  1 19  1  0  0  0  0
  2 20  1  0  0  0  0
  2 21  1  0  0  0  0
  6 22  1  0  0  0  0
  6 23  1  0  0  0  0
  8 24  1  0  0  0  0
 12 25  1  0  0  0  0
 13 26  1  0  0  0  0
 14 27  1  0  0  0  0
 15 28  1  0  0  0  0
 16 29  1  0  0  0  0
 16 30  1  0  0  0  0
 16 31  1  0  0  0  0
M  CHG  1   1   1
M  END
