21

C          0.79653        0.14110        0.54596
C          0.55812        1.59223        0.15369
C          1.48629        2.06315       -0.96158
N          0.87377        1.80634       -2.28951
C          1.09607        0.63128       -2.92349
C          0.54452        0.38638       -4.17623
C         -0.22947        1.36597       -4.78438
C         -0.44151        2.57031       -4.12774
C          0.12042        2.77042       -2.87253
H          0.59052       -0.54149       -0.28253
H          0.14268       -0.13597        1.37916
H          1.83199       -0.00962        0.86918
H         -0.49310        1.72829       -0.12433
H          0.73924        2.20988        1.04125
H          1.65188        3.14446       -0.89092
H          2.46770        1.57723       -0.93508
H          1.71483       -0.10595       -2.42033
H          0.72003       -0.56253       -4.67872
H         -0.66397        1.19224       -5.76823
H         -1.04081        3.35049       -4.59286
H         -0.02355        3.69895       -2.32714
