19

C          0.93949       -0.08108       -0.11461
C          0.50005       -1.48236        0.26354
S          0.99002       -1.90048        1.95549
C          0.49211       -3.63195        1.91982
C          2.78037       -2.10226        1.76463
C          3.28826       -2.93967        0.60969
H          0.55330        0.66189        0.59134
H          0.56568        0.17439       -1.11128
H          2.02994        0.00886       -0.13446
H         -0.59380       -1.53297        0.23121
H          0.87657       -2.21678       -0.45183
H          0.76929       -4.12124        0.98474
H          0.95129       -4.15525        2.76208
H         -0.59495       -3.67961        2.02675
H          3.20636       -1.09572        1.69608
H          3.14348       -2.53155        2.70502
H          3.02392       -2.51204       -0.36059
H          4.38232       -2.98659        0.64777
H          2.92370       -3.96892        0.64813
