16

C          0.98242       -0.06630       -0.08205
C          0.63245       -1.53970       -0.16563
S          1.07708       -2.40664        1.37149
C          0.57721       -4.05609        0.81864
C          2.84021       -2.61158        1.01954
H          0.48989        0.41181        0.77137
H          0.65898        0.44989       -0.99154
H          2.06099        0.08642        0.02398
H         -0.44918       -1.64759       -0.29754
H          1.12759       -2.00709       -1.02213
H          0.98480       -4.28449       -0.16921
H          0.93704       -4.79330        1.54072
H         -0.51417       -4.09820        0.78028
H          3.00506       -2.98074        0.00448
H          3.34302       -1.64982        1.14466
H          3.25928       -3.32297        1.73585
