 xtb: 6.7.1 (edcfbbe)
          12202406503D

 29 28  0     0  0            999 V2000
    0.8742   -0.2081   -0.0864 C   0  0  0  0  0  0  0  0  0  0  0  0
    0.2395   -0.7344    1.1994 C   0  0  0  0  0  0  0  0  0  0  0  0
    0.8336   -0.2078    2.5323 C   0  0  0  0  0  0  0  0  0  0  0  0
    0.6901    1.2024    3.0155 N   0  0  0  0  0  0  0  0  0  0  0  0
   -0.6701    1.4635    3.5238 C   0  0  0  0  0  0  0  0  0  0  0  0
    1.6376    1.3627    4.1394 C   0  0  0  0  0  0  0  0  0  0  0  0
    1.0184    2.2001    1.9805 C   0  0  0  0  0  0  0  0  0  0  0  0
   -1.1898   -0.7779    1.1591 O   0  0  0  0  0  0  0  0  0  0  0  0
   -1.9364    0.2282    0.6694 C   0  0  0  0  0  0  0  0  0  0  0  0
   -1.5052    1.3393    0.4825 O   0  0  0  0  0  0  0  0  0  0  0  0
   -3.3435   -0.2102    0.4404 C   0  0  0  0  0  0  0  0  0  0  0  0
    0.5753    0.8028   -0.3378 H   0  0  0  0  0  0  0  0  0  0  0  0
    0.5686   -0.8527   -0.9078 H   0  0  0  0  0  0  0  0  0  0  0  0
    1.9563   -0.2591   -0.0080 H   0  0  0  0  0  0  0  0  0  0  0  0
    0.4871   -1.8055    1.2550 H   0  0  0  0  0  0  0  0  0  0  0  0
    0.4272   -0.8430    3.3237 H   0  0  0  0  0  0  0  0  0  0  0  0
    1.9045   -0.4087    2.4538 H   0  0  0  0  0  0  0  0  0  0  0  0
   -0.7086    2.4526    3.9773 H   0  0  0  0  0  0  0  0  0  0  0  0
   -1.3902    1.4416    2.7117 H   0  0  0  0  0  0  0  0  0  0  0  0
   -0.9467    0.7228    4.2719 H   0  0  0  0  0  0  0  0  0  0  0  0
    2.6634    1.2588    3.7907 H   0  0  0  0  0  0  0  0  0  0  0  0
    1.5237    2.3509    4.5816 H   0  0  0  0  0  0  0  0  0  0  0  0
    1.4504    0.6165    4.9095 H   0  0  0  0  0  0  0  0  0  0  0  0
    1.9785    1.9688    1.5248 H   0  0  0  0  0  0  0  0  0  0  0  0
    0.2381    2.2138    1.2203 H   0  0  0  0  0  0  0  0  0  0  0  0
    1.0726    3.1894    2.4311 H   0  0  0  0  0  0  0  0  0  0  0  0
   -3.3980   -0.6862   -0.5382 H   0  0  0  0  0  0  0  0  0  0  0  0
   -3.6440   -0.9410    1.1853 H   0  0  0  0  0  0  0  0  0  0  0  0
   -4.0077    0.6494    0.4416 H   0  0  0  0  0  0  0  0  0  0  0  0
  1  2  1  0  0  0  0
  2  3  1  0  0  0  0
  3  4  1  0  0  0  0
  4  5  1  0  0  0  0
  4  6  1  0  0  0  0
  4  7  1  0  0  0  0
  2  8  1  0  0  0  0
  8  9  1  0  0  0  0
  9 10  2  0  0  0  0
  9 11  1  0  0  0  0
  1 12  1  0  0  0  0
  1 13  1  0  0  0  0
  1 14  1  0  0  0  0
  2 15  1  0  0  0  0
  3 16  1  0  0  0  0
  3 17  1  0  0  0  0
  5 18  1  0  0  0  0
  5 19  1  0  0  0  0
  5 20  1  0  0  0  0
  6 21  1  0  0  0  0
  6 22  1  0  0  0  0
  6 23  1  0  0  0  0
  7 24  1  0  0  0  0
  7 25  1  0  0  0  0
  7 26  1  0  0  0  0
 11 27  1  0  0  0  0
 11 28  1  0  0  0  0
 11 29  1  0  0  0  0
M  CHG  1   1   1
M  END
