14

C          1.08705        0.03713        0.10208
N          0.55442        0.56385       -1.19990
C          1.08705       -0.20328       -2.37638
C         -0.94609        0.63240       -1.20655
H          0.73904       -0.99117        0.23181
H          0.71724        0.68046        0.90480
H          2.17872        0.07976        0.06389
H          0.89742        1.52947       -1.29357
H          0.73903       -1.23734       -2.30606
H          0.71723        0.27378       -3.28778
H          2.17871       -0.15411       -2.34711
H         -1.26058        1.25952       -0.36821
H         -1.26058        1.08671       -2.14978
H         -1.34285       -0.38163       -1.10818
