 xtb: 6.7.1 (edcfbbe)
          12202406503D

 20 20  0     0  0            999 V2000
    1.1139    0.0363   -0.7584 C   0  0  0  0  0  0  0  0  0  0  0  0
    0.0106    0.5456   -1.2708 C   0  0  0  0  0  0  0  0  0  0  0  0
   -1.2862    0.6500   -0.5139 C   0  0  0  0  0  0  0  0  0  0  0  0
   -1.7839    2.0114   -0.5323 N   0  0  0  0  0  0  0  0  0  0  0  0
   -1.0728    3.1061   -0.1450 C   0  0  0  0  0  0  0  0  0  0  0  0
   -1.8741    4.1926   -0.3224 C   0  0  0  0  0  0  0  0  0  0  0  0
   -3.0616    3.7441   -0.8167 N   0  0  0  0  0  0  0  0  0  0  0  0
   -2.9822    2.4216   -0.9371 C   0  0  0  0  0  0  0  0  0  0  0  0
   -4.1927    4.5702   -1.1434 C   0  0  0  0  0  0  0  0  0  0  0  0
    1.1583   -0.3368    0.2515 H   0  0  0  0  0  0  0  0  0  0  0  0
    2.0165   -0.0456   -1.3373 H   0  0  0  0  0  0  0  0  0  0  0  0
   -0.0213    0.9051   -2.2898 H   0  0  0  0  0  0  0  0  0  0  0  0
   -2.0432    0.0055   -0.9686 H   0  0  0  0  0  0  0  0  0  0  0  0
   -1.1380    0.3390    0.5244 H   0  0  0  0  0  0  0  0  0  0  0  0
   -0.0674    3.0354    0.2170 H   0  0  0  0  0  0  0  0  0  0  0  0
   -1.6835    5.2299   -0.1360 H   0  0  0  0  0  0  0  0  0  0  0  0
   -3.7651    1.7846   -1.3022 H   0  0  0  0  0  0  0  0  0  0  0  0
   -5.0112    3.9524   -1.5061 H   0  0  0  0  0  0  0  0  0  0  0  0
   -4.5232    5.1183   -0.2602 H   0  0  0  0  0  0  0  0  0  0  0  0
   -3.9200    5.2914   -1.9151 H   0  0  0  0  0  0  0  0  0  0  0  0
  1  2  2  0  0  0  0
  2  3  1  0  0  0  0
  3  4  1  0  0  0  0
  4  5  4  0  0  0  0
  5  6  2  0  0  0  0
  6  7  4  0  0  0  0
  4  8  4  0  0  0  0
  7  8  4  0  0  0  0
  7  9  1  0  0  0  0
  1 10  1  0  0  0  0
  1 11  1  0  0  0  0
  2 12  1  0  0  0  0
  3 13  1  0  0  0  0
  3 14  1  0  0  0  0
  5 15  1  0  0  0  0
  6 16  1  0  0  0  0
  8 17  1  0  0  0  0
  9 18  1  0  0  0  0
  9 19  1  0  0  0  0
  9 20  1  0  0  0  0
M  CHG  1   1   1
M  END
