38

C          1.37887       -0.29707       -0.50766
C          1.03652        0.70132        0.58631
C          1.25755        2.16108        0.18200
C          0.44336        2.66433       -1.01601
C         -1.08817        2.62465       -0.90130
N         -1.77156        3.85836       -0.25271
C         -1.27637        5.20387       -0.90727
C         -1.38003        5.25861       -2.42461
C         -3.31313        3.80552       -0.48554
C         -4.01410        2.52443       -0.06445
C         -1.44183        4.03367        1.25254
C         -1.77150        2.86564        2.16202
H          0.68665       -0.21940       -1.35096
H          1.31111       -1.31758       -0.11691
H          2.39768       -0.14336       -0.87677
H          0.00571        0.53889        0.91249
H          1.67042        0.49060        1.45650
H          1.08445        2.79359        1.05524
H          2.32056        2.28812       -0.06312
H          0.80346        3.66128       -1.28131
H          0.71367        2.04117       -1.87857
H         -1.51118        2.55567       -1.91068
H         -1.41710        1.73222       -0.36858
H         -1.87615        6.00758       -0.46344
H         -0.23859        5.35836       -0.59380
H         -2.41522        5.24333       -2.77362
H         -0.94658        6.20142       -2.77704
H         -0.83190        4.45287       -2.91758
H         -3.74780        4.67153        0.02539
H         -3.47411        3.92219       -1.56044
H         -4.07468        2.40969        1.01659
H         -5.05043        2.55666       -0.42116
H         -3.56365        1.62802       -0.49535
H         -0.37479        4.26276        1.31502
H         -1.98035        4.92564        1.59531
H         -1.65447        1.88619        1.70139
H         -1.11457        2.89372        3.03880
H         -2.78896        2.95162        2.55297
