 xtb: 6.7.1 (edcfbbe)
          12202406503D

 38 37  0     0  0            999 V2000
    1.3794   -0.2062   -0.8804 C   0  0  0  0  0  0  0  0  0  0  0  0
    0.8919    0.4956    0.3812 C   0  0  0  0  0  0  0  0  0  0  0  0
    1.1603    2.0027    0.3848 C   0  0  0  0  0  0  0  0  0  0  0  0
    0.4806    2.7840   -0.7475 C   0  0  0  0  0  0  0  0  0  0  0  0
   -1.0539    2.7379   -0.7381 C   0  0  0  0  0  0  0  0  0  0  0  0
   -1.7620    3.9307   -0.1855 N   0  0  0  0  0  0  0  0  0  0  0  0
   -1.3845    5.1854   -0.9225 C   0  0  0  0  0  0  0  0  0  0  0  0
   -1.3532    5.0848   -2.4400 C   0  0  0  0  0  0  0  0  0  0  0  0
   -3.2517    3.7661   -0.3299 C   0  0  0  0  0  0  0  0  0  0  0  0
   -3.8282    2.3590   -0.2426 C   0  0  0  0  0  0  0  0  0  0  0  0
   -1.3929    4.1697    1.2454 C   0  0  0  0  0  0  0  0  0  0  0  0
   -1.8570    3.1324    2.2547 C   0  0  0  0  0  0  0  0  0  0  0  0
    0.7970    0.0830   -1.7520 H   0  0  0  0  0  0  0  0  0  0  0  0
    1.2890   -1.2823   -0.7628 H   0  0  0  0  0  0  0  0  0  0  0  0
    2.4245    0.0271   -1.0666 H   0  0  0  0  0  0  0  0  0  0  0  0
   -0.1723    0.2874    0.5197 H   0  0  0  0  0  0  0  0  0  0  0  0
    1.4111    0.0695    1.2410 H   0  0  0  0  0  0  0  0  0  0  0  0
    0.8761    2.4056    1.3583 H   0  0  0  0  0  0  0  0  0  0  0  0
    2.2361    2.1529    0.2785 H   0  0  0  0  0  0  0  0  0  0  0  0
    0.8486    3.8091   -0.7293 H   0  0  0  0  0  0  0  0  0  0  0  0
    0.8181    2.3535   -1.6905 H   0  0  0  0  0  0  0  0  0  0  0  0
   -1.4228    2.6061   -1.7547 H   0  0  0  0  0  0  0  0  0  0  0  0
   -1.3680    1.8742   -0.1563 H   0  0  0  0  0  0  0  0  0  0  0  0
   -2.1010    5.9538   -0.6238 H   0  0  0  0  0  0  0  0  0  0  0  0
   -0.4006    5.5028   -0.5753 H   0  0  0  0  0  0  0  0  0  0  0  0
   -2.2834    4.7135   -2.8613 H   0  0  0  0  0  0  0  0  0  0  0  0
   -1.1976    6.0864   -2.8334 H   0  0  0  0  0  0  0  0  0  0  0  0
   -0.5340    4.4654   -2.7916 H   0  0  0  0  0  0  0  0  0  0  0  0
   -3.7130    4.3951    0.4333 H   0  0  0  0  0  0  0  0  0  0  0  0
   -3.5311    4.1678   -1.3043 H   0  0  0  0  0  0  0  0  0  0  0  0
   -3.5746    1.8433    0.6765 H   0  0  0  0  0  0  0  0  0  0  0  0
   -4.9112    2.4555   -0.2738 H   0  0  0  0  0  0  0  0  0  0  0  0
   -3.5366    1.7425   -1.0876 H   0  0  0  0  0  0  0  0  0  0  0  0
   -0.3059    4.2448    1.2866 H   0  0  0  0  0  0  0  0  0  0  0  0
   -1.8071    5.1402    1.5285 H   0  0  0  0  0  0  0  0  0  0  0  0
   -1.5036    2.1331    2.0191 H   0  0  0  0  0  0  0  0  0  0  0  0
   -1.4371    3.4050    3.2201 H   0  0  0  0  0  0  0  0  0  0  0  0
   -2.9367    3.1197    2.3658 H   0  0  0  0  0  0  0  0  0  0  0  0
  1  2  1  0  0  0  0
  2  3  1  0  0  0  0
  3  4  1  0  0  0  0
  4  5  1  0  0  0  0
  5  6  1  0  0  0  0
  6  7  1  0  0  0  0
  7  8  1  0  0  0  0
  6  9  1  0  0  0  0
  9 10  1  0  0  0  0
  6 11  1  0  0  0  0
 11 12  1  0  0  0  0
  1 13  1  0  0  0  0
  1 14  1  0  0  0  0
  1 15  1  0  0  0  0
  2 16  1  0  0  0  0
  2 17  1  0  0  0  0
  3 18  1  0  0  0  0
  3 19  1  0  0  0  0
  4 20  1  0  0  0  0
  4 21  1  0  0  0  0
  5 22  1  0  0  0  0
  5 23  1  0  0  0  0
  7 24  1  0  0  0  0
  7 25  1  0  0  0  0
  8 26  1  0  0  0  0
  8 27  1  0  0  0  0
  8 28  1  0  0  0  0
  9 29  1  0  0  0  0
  9 30  1  0  0  0  0
 10 31  1  0  0  0  0
 10 32  1  0  0  0  0
 10 33  1  0  0  0  0
 11 34  1  0  0  0  0
 11 35  1  0  0  0  0
 12 36  1  0  0  0  0
 12 37  1  0  0  0  0
 12 38  1  0  0  0  0
M  CHG  1   1   1
M  END
