41

C          1.25139       -0.63221       -0.98380
C          0.71384       -1.99000       -0.55049
N          1.20944       -2.40281        0.77363
C          0.40759       -2.56899        1.90240
O          0.88252       -2.64485        3.03844
C         -1.11574       -2.55056        1.74962
N         -1.66530       -1.17965        1.72490
C         -2.97887       -0.85345        1.44926
C         -3.06059        0.50879        1.48692
N         -1.79263        0.98950        1.81014
C         -0.98251       -0.06367        2.03187
C         -1.37759        2.42869        1.84507
C         -0.05281        2.61506        2.60596
C         -1.18877        2.91156        0.39780
C         -2.44427        3.29011        2.54302
C          2.66628       -2.55748        0.94301
C          3.27523       -3.58134       -0.00313
H          1.05837        0.13021       -0.22263
H          0.77546       -0.31569       -1.91710
H          2.33117       -0.66612       -1.15933
H         -0.37543       -1.93146       -0.55409
H          0.98742       -2.76062       -1.27770
H         -1.42527       -3.09149        0.85077
H         -1.55563       -3.07120        2.60812
H         -3.68832       -1.63684        1.24333
H         -3.86769        1.19833        1.30844
H          0.05184       -0.01973        2.35304
H          0.77485        2.10320        2.10289
H          0.21953        3.67418        2.67808
H         -0.12553        2.21581        3.62367
H         -2.12025        2.82517       -0.17255
H         -0.86634        3.95756        0.36192
H         -0.43672        2.30511       -0.11944
H         -3.38656        3.30266        1.98568
H         -2.65783        2.90834        3.54735
H         -2.11445        4.33101        2.63775
H          3.13350       -1.57730        0.80215
H          2.89932       -2.86708        1.96707
H          3.21539       -3.25223       -1.04489
H          4.33279       -3.73286        0.23484
H          2.76180       -4.54470        0.07935
