20

C          0.89447        0.06770       -0.00825
C          0.20274        0.49986       -1.07190
C         -1.28344        0.65303       -1.12190
N         -1.69760        2.05516       -1.00628
C         -0.91881        3.20425       -1.07255
C         -1.76201        4.26809       -0.91250
N         -3.03465        3.74931       -0.75689
C         -2.97811        2.41098       -0.81182
C         -4.25984        4.51217       -0.55662
H          0.41517       -0.19167        0.93179
H          1.97547       -0.04454       -0.05557
H          0.74433        0.71952       -1.98993
H         -1.66763        0.26264       -2.07046
H         -1.76376        0.09526       -0.30932
H          0.14499        3.13172       -1.22246
H         -1.61738        5.33478       -0.89005
H         -3.82023        1.73475       -0.71759
H         -4.97158        4.25234       -1.34476
H         -4.67893        4.25729        0.42034
H         -4.05038        5.58435       -0.59550
