72

C          1.11903       -0.41816       -0.78659
C          1.17545       -1.34596        0.41745
C          1.49385       -0.62374        1.72951
C          0.48480        0.44958        2.15301
C         -0.95629       -0.03960        2.33278
C         -1.14960       -1.12344        3.39943
C         -0.76740       -0.71262        4.82661
C         -1.52659        0.49676        5.38601
C         -3.05139        0.34348        5.43712
C         -3.56209       -0.78491        6.34110
C         -3.22243       -0.63269        7.82860
C         -3.76729        0.63628        8.49413
C         -5.29513        0.76819        8.48927
C         -6.04835       -0.31798        9.26799
C         -5.66665       -0.45191       10.74751
C         -5.80278        0.83183       11.57211
C         -7.23982        1.33466       11.75089
C         -8.11382        0.46770       12.65895
N         -7.52179        0.37157       14.01848
C         -6.99546       -0.80002       14.44192
C         -6.38240       -0.89537       15.68444
C         -6.30724        0.22912       16.50871
C         -6.88400        1.43647       16.07016
C         -7.50229        1.46478       14.81834
C         -6.81203        2.57685       16.88771
C         -6.16720        2.52018       18.12326
C         -5.59582        1.32713       18.55633
C         -5.66736        0.18576       17.75672
H          0.28525        0.28611       -0.71261
H          0.98011       -0.99990       -1.70351
H          2.04753        0.15299       -0.88578
H          0.23162       -1.89542        0.50120
H          1.95431       -2.09748        0.24002
H          1.59000       -1.37039        2.52641
H          2.48047       -0.15151        1.64063
H          0.83502        0.90720        3.08574
H          0.48679        1.25875        1.41297
H         -1.58920        0.82361        2.56954
H         -1.33311       -0.42095        1.37659
H         -2.19804       -1.44354        3.38280
H         -0.57045       -2.01307        3.12578
H         -0.91801       -1.57382        5.48822
H          0.30704       -0.49799        4.86718
H         -1.14557        0.71375        6.39072
H         -1.28640        1.38305        4.78701
H         -3.48684        1.29640        5.75909
H         -3.43628        0.17934        4.42411
H         -4.64945       -0.85925        6.22366
H         -3.16541       -1.74420        5.98909
H         -3.59610       -1.51366        8.36354
H         -2.13380       -0.65274        7.95656
H         -3.39849        0.67403        9.52566
H         -3.33971        1.51847        8.00392
H         -5.56026        1.75208        8.89389
H         -5.66155        0.77513        7.45630
H         -7.12357       -0.11885        9.18832
H         -5.89258       -1.28776        8.78049
H         -6.27383       -1.24677       11.19541
H         -4.62919       -0.79971       10.81845
H         -5.34356        0.66734       12.55337
H         -5.20990        1.62999       11.11193
H         -7.19032        2.34956       12.16353
H         -7.72968        1.43392       10.77617
H         -9.11002        0.90860       12.78117
H         -8.24526       -0.54103       12.25545
H         -7.05181       -1.65363       13.77221
H         -5.95278       -1.84501       15.99859
H         -7.96593        2.36739       14.42990
H         -7.24604        3.52535       16.57465
H         -6.10654        3.40806       18.75025
H         -5.09098        1.28592       19.51993
H         -5.21032       -0.73346       18.12079
