35

O          1.37780       -0.25411        0.08108
C          0.79282        0.77703        0.88599
C          1.19196        0.56544        2.36119
N          2.67727        0.57602        2.48726
C          3.51470        1.62583        2.83205
C          4.79284        1.14274        2.79372
N          4.70925       -0.18169        2.40233
C          3.42521       -0.49703        2.17350
C          5.82802       -1.11022        2.23828
C          6.03869       -1.93331        3.49448
C          0.52105        1.55899        3.32435
C         -1.01707        1.48394        3.40657
C         -1.52245        0.09330        3.79198
C         -1.52640        2.51487        4.41893
H          1.06502       -0.10889       -0.83305
H          1.15653        1.74214        0.51937
H         -0.29107        0.72443        0.75462
H          0.90712       -0.45451        2.65075
H          3.10259        2.59049        3.07127
H          5.75905        1.57356        2.99273
H          3.05364       -1.45256        1.81972
H          5.61155       -1.76231        1.38513
H          6.73053       -0.53705        2.00003
H          5.14255       -2.51527        3.73293
H          6.87606       -2.62519        3.36551
H          6.25211       -1.28692        4.35188
H          0.93776        1.40213        4.32851
H          0.79854        2.58093        3.03569
H         -1.44266        1.74661        2.43108
H         -1.05901       -0.25446        4.72132
H         -2.60811        0.10047        3.93787
H         -1.30943       -0.63902        3.00742
H         -1.20362        3.52434        4.14320
H         -2.62088        2.51432        4.45819
H         -1.15176        2.30169        5.42608
