45

C          1.21488       -0.18763       -0.55077
C          1.03871       -1.66944       -0.25331
C          1.33502       -2.04361        1.20260
C          0.49544       -1.31249        2.25579
C         -1.01678       -1.52976        2.14631
C         -1.49642       -2.95078        2.46745
C         -1.25514       -3.42496        3.90779
C         -1.90260       -2.57835        5.00516
N         -3.37590       -2.81561        5.06866
C         -4.16807       -2.00824        4.31871
C         -5.55080       -2.11783        4.32480
C         -6.38598       -1.25127        3.42899
C         -6.13225       -3.07432        5.14313
C         -5.33334       -3.89086        5.94791
C         -3.92307       -3.77457        5.88143
C         -3.04092       -4.64127        6.74377
C         -6.01176       -4.88722        6.85348
H          0.46814        0.41807       -0.02869
H          1.09720       -0.00197       -1.62321
H          2.21035        0.15769       -0.25432
H          0.02494       -1.97938       -0.52896
H          1.71957       -2.23656       -0.89962
H          1.21188       -3.12649        1.31939
H          2.39332       -1.83634        1.40628
H          0.84264       -1.61164        3.25120
H          0.69677       -0.23668        2.19021
H         -1.51374       -0.81318        2.80806
H         -1.35530       -1.26823        1.13748
H         -2.56699       -3.01648        2.24259
H         -1.01203       -3.65891        1.78465
H         -1.60934       -4.45984        3.98402
H         -0.17523       -3.46040        4.09101
H         -1.47833       -2.81651        5.98518
H         -1.73614       -1.50547        4.86846
H         -3.67378       -1.26498        3.69941
H         -6.00779       -0.22368        3.42585
H         -6.36527       -1.64248        2.40689
H         -7.42677       -1.21608        3.76717
H         -7.21793       -3.17978        5.16493
H         -2.12573       -4.93085        6.22215
H         -2.77946       -4.10248        7.65954
H         -3.52832       -5.57981        7.02160
H         -5.81999       -5.90702        6.50603
H         -5.65523       -4.77271        7.88234
H         -7.09706       -4.73940        6.87292
