 xtb: 6.7.1 (edcfbbe)
          12202406513D

 29 28  0     0  0            999 V2000
    2.2946    0.2030   -0.2790 C   0  0  0  0  0  0  0  0  0  0  0  0
    0.9874    0.9790   -0.3835 C   0  0  0  0  0  0  0  0  0  0  0  0
    0.6079    1.3146   -1.8308 C   0  0  0  0  0  0  0  0  0  0  0  0
    0.2351    0.0709   -2.6609 C   0  0  0  0  0  0  0  0  0  0  0  0
   -1.2242    0.0536   -3.0938 N   0  0  0  0  0  0  0  0  0  0  0  0
   -1.5575    1.1738   -3.9919 C   0  0  0  0  0  0  0  0  0  0  0  0
   -1.5275   -1.2089   -3.7991 C   0  0  0  0  0  0  0  0  0  0  0  0
   -2.0892    0.1069   -1.8980 C   0  0  0  0  0  0  0  0  0  0  0  0
    1.1980   -0.0858   -3.8323 C   0  0  0  0  0  0  0  0  0  0  0  0
    2.2322   -0.7671   -0.7666 H   0  0  0  0  0  0  0  0  0  0  0  0
    2.5414    0.0349    0.7650 H   0  0  0  0  0  0  0  0  0  0  0  0
    3.1081    0.7645   -0.7308 H   0  0  0  0  0  0  0  0  0  0  0  0
    0.1854    0.4147    0.0971 H   0  0  0  0  0  0  0  0  0  0  0  0
    1.0973    1.9170    0.1619 H   0  0  0  0  0  0  0  0  0  0  0  0
   -0.1966    2.0482   -1.8140 H   0  0  0  0  0  0  0  0  0  0  0  0
    1.4601    1.8089   -2.2981 H   0  0  0  0  0  0  0  0  0  0  0  0
    0.3361   -0.8110   -2.0207 H   0  0  0  0  0  0  0  0  0  0  0  0
   -0.9836    1.1032   -4.9124 H   0  0  0  0  0  0  0  0  0  0  0  0
   -2.6162    1.1411   -4.2422 H   0  0  0  0  0  0  0  0  0  0  0  0
   -1.3440    2.1290   -3.5195 H   0  0  0  0  0  0  0  0  0  0  0  0
   -1.2049   -2.0624   -3.2057 H   0  0  0  0  0  0  0  0  0  0  0  0
   -2.6006   -1.2879   -3.9649 H   0  0  0  0  0  0  0  0  0  0  0  0
   -1.0338   -1.2417   -4.7664 H   0  0  0  0  0  0  0  0  0  0  0  0
   -1.8829   -0.7445   -1.2520 H   0  0  0  0  0  0  0  0  0  0  0  0
   -1.9253    1.0203   -1.3334 H   0  0  0  0  0  0  0  0  0  0  0  0
   -3.1356    0.0715   -2.1955 H   0  0  0  0  0  0  0  0  0  0  0  0
    2.2043   -0.1400   -3.4246 H   0  0  0  0  0  0  0  0  0  0  0  0
    1.0384   -0.9986   -4.3978 H   0  0  0  0  0  0  0  0  0  0  0  0
    1.1660    0.7666   -4.5051 H   0  0  0  0  0  0  0  0  0  0  0  0
  1  2  1  0  0  0  0
  2  3  1  0  0  0  0
  3  4  1  0  0  0  0
  4  5  1  0  0  0  0
  5  6  1  0  0  0  0
  5  7  1  0  0  0  0
  5  8  1  0  0  0  0
  4  9  1  0  0  0  0
  1 10  1  0  0  0  0
  1 11  1  0  0  0  0
  1 12  1  0  0  0  0
  2 13  1  0  0  0  0
  2 14  1  0  0  0  0
  3 15  1  0  0  0  0
  3 16  1  0  0  0  0
  4 17  1  0  0  0  0
  6 18  1  0  0  0  0
  6 19  1  0  0  0  0
  6 20  1  0  0  0  0
  7 21  1  0  0  0  0
  7 22  1  0  0  0  0
  7 23  1  0  0  0  0
  8 24  1  0  0  0  0
  8 25  1  0  0  0  0
  8 26  1  0  0  0  0
  9 27  1  0  0  0  0
  9 28  1  0  0  0  0
  9 29  1  0  0  0  0
M  CHG  1   1   1
M  END
