55

Br         0.53956       -0.35788        0.33715
C          2.38806       -0.65423       -0.18449
C          2.55432       -0.63340       -1.69768
C          2.25932        0.70370       -2.39676
C          2.97257        1.93222       -1.82159
C          4.50101        1.88722       -1.91927
C          5.06106        2.24952       -3.30276
C          4.95241        3.73477       -3.67841
C          5.75404        4.69151       -2.79201
N          7.15907        4.79511       -3.19429
C          7.66279        5.66771       -4.06262
N          6.94317        6.59084       -4.70118
N          8.97503        5.51072       -4.16779
C          9.36879        4.47676       -3.31705
C          8.20555        4.03098       -2.67915
C          8.22932        3.01665       -1.72403
C          9.47785        2.44465       -1.45394
C         10.64523        2.88482       -2.10178
C         10.61750        3.92050       -3.04491
C          9.87495        6.30277       -5.00139
C          9.92289        5.73667       -6.39818
C          9.08202        6.22457       -7.41123
C          9.13914        5.69625       -8.70308
C         10.04250        4.68102       -9.00340
C         10.88843        4.19079       -8.01306
C         10.82678        4.71129       -6.71877
H          2.99479        0.10016        0.32186
H          2.65590       -1.63586        0.21733
H          3.58193       -0.93542       -1.93219
H          1.90995       -1.40097       -2.14527
H          2.50900        0.59983       -3.45945
H          1.17918        0.89096       -2.36504
H          2.58871        2.82573       -2.32568
H          2.69130        2.05188       -0.76932
H          4.90954        2.56273       -1.16206
H          4.86564        0.89213       -1.64342
H          6.11227        1.94632       -3.34963
H          4.54674        1.65616       -4.06792
H          5.27661        3.85252       -4.71994
H          3.89866        4.03241       -3.65073
H          5.31435        5.69293       -2.86264
H          5.70183        4.43353       -1.73155
H          5.94098        6.63002       -4.60764
H          7.37966        7.26882       -5.30247
H          7.33416        2.68314       -1.21777
H          9.54832        1.63941       -0.72206
H         11.59612        2.40982       -1.85833
H         11.52080        4.26511       -3.53021
H          9.53575        7.34462       -5.01290
H         10.87752        6.32181       -4.55952
H          8.38581        7.03613       -7.22782
H          8.48730        6.08365       -9.48335
H         10.09440        4.27782      -10.01242
H         11.60263        3.40581       -8.25286
H         11.50882        4.31370       -5.97176
