 xtb: 6.7.1 (edcfbbe)
          12202406513D

 27 26  0     0  0            999 V2000
    1.2664    0.2270   -0.0522 C   0  0  0  0  0  0  0  0  0  0  0  0
    0.5723    0.2410   -1.3520 N   0  0  0  0  0  0  0  0  0  0  0  0
    0.8028   -1.0390   -2.0885 C   0  0  0  0  0  0  0  0  0  0  0  0
    0.1372   -2.3090   -1.5485 C   0  0  0  0  0  0  0  0  0  0  0  0
   -1.2686   -2.5830   -2.0585 C   0  0  0  0  0  0  0  0  0  0  0  0
   -1.3323   -2.4221   -3.8647 S   0  0  0  0  0  0  0  0  0  0  0  0
   -0.0223   -2.5814   -4.4004 O   0  0  0  0  0  0  0  0  0  0  0  0
   -2.4347   -3.1319   -4.4032 O   0  0  0  0  0  0  0  0  0  0  0  0
   -1.7031   -0.8256   -3.9490 O   0  0  0  0  0  0  0  0  0  0  0  0
   -0.8622    0.4986   -1.1422 C   0  0  0  0  0  0  0  0  0  0  0  0
    1.1287    1.3308   -2.1779 C   0  0  0  0  0  0  0  0  0  0  0  0
    0.9055   -0.5886    0.5698 H   0  0  0  0  0  0  0  0  0  0  0  0
    1.0915    1.1633    0.4749 H   0  0  0  0  0  0  0  0  0  0  0  0
    2.3380    0.1057   -0.1973 H   0  0  0  0  0  0  0  0  0  0  0  0
    0.4802   -0.9080   -3.1212 H   0  0  0  0  0  0  0  0  0  0  0  0
    1.8822   -1.2011   -2.0996 H   0  0  0  0  0  0  0  0  0  0  0  0
    0.7611   -3.1334   -1.8981 H   0  0  0  0  0  0  0  0  0  0  0  0
    0.1472   -2.3428   -0.4573 H   0  0  0  0  0  0  0  0  0  0  0  0
   -1.5567   -3.6104   -1.8565 H   0  0  0  0  0  0  0  0  0  0  0  0
   -2.0395   -1.9240   -1.6775 H   0  0  0  0  0  0  0  0  0  0  0  0
   -2.4154   -0.7015   -4.5811 H   0  0  0  0  0  0  0  0  0  0  0  0
   -1.0056    1.5102   -0.7651 H   0  0  0  0  0  0  0  0  0  0  0  0
   -1.3931    0.3942   -2.0872 H   0  0  0  0  0  0  0  0  0  0  0  0
   -1.2697   -0.1974   -0.4132 H   0  0  0  0  0  0  0  0  0  0  0  0
    1.0444    2.2810   -1.6529 H   0  0  0  0  0  0  0  0  0  0  0  0
    2.1789    1.1455   -2.3949 H   0  0  0  0  0  0  0  0  0  0  0  0
    0.5860    1.3996   -3.1187 H   0  0  0  0  0  0  0  0  0  0  0  0
  1  2  1  0  0  0  0
  2  3  1  0  0  0  0
  3  4  1  0  0  0  0
  4  5  1  0  0  0  0
  5  6  1  0  0  0  0
  6  7  2  0  0  0  0
  6  8  2  0  0  0  0
  6  9  1  0  0  0  0
  2 10  1  0  0  0  0
  2 11  1  0  0  0  0
  1 12  1  0  0  0  0
  1 13  1  0  0  0  0
  1 14  1  0  0  0  0
  3 15  1  0  0  0  0
  3 16  1  0  0  0  0
  4 17  1  0  0  0  0
  4 18  1  0  0  0  0
  5 19  1  0  0  0  0
  5 20  1  0  0  0  0
  9 21  1  0  0  0  0
 10 22  1  0  0  0  0
 10 23  1  0  0  0  0
 10 24  1  0  0  0  0
 11 25  1  0  0  0  0
 11 26  1  0  0  0  0
 11 27  1  0  0  0  0
M  CHG  1   1   1
M  END
