 xtb: 6.7.1 (edcfbbe)
          12202406513D

 75 75  0     0  0            999 V2000
    0.9503    1.0432    0.5113 C   0  0  0  0  0  0  0  0  0  0  0  0
    1.3180    1.3482   -0.9360 C   0  0  0  0  0  0  0  0  0  0  0  0
    1.5648    0.0926   -1.7740 C   0  0  0  0  0  0  0  0  0  0  0  0
    0.3571   -0.8362   -1.9163 C   0  0  0  0  0  0  0  0  0  0  0  0
   -0.8788   -0.1967   -2.5512 C   0  0  0  0  0  0  0  0  0  0  0  0
   -0.6738    0.3313   -3.9722 C   0  0  0  0  0  0  0  0  0  0  0  0
   -0.2798   -0.7272   -5.0049 C   0  0  0  0  0  0  0  0  0  0  0  0
   -1.2588   -1.8961   -5.1397 C   0  0  0  0  0  0  0  0  0  0  0  0
   -2.7042   -1.4945   -5.4383 C   0  0  0  0  0  0  0  0  0  0  0  0
   -2.9016   -0.7334   -6.7501 C   0  0  0  0  0  0  0  0  0  0  0  0
   -2.6014   -1.5400   -8.0152 C   0  0  0  0  0  0  0  0  0  0  0  0
   -3.4445   -2.8063   -8.1903 C   0  0  0  0  0  0  0  0  0  0  0  0
   -4.9571   -2.5880   -8.1041 C   0  0  0  0  0  0  0  0  0  0  0  0
   -5.5205   -1.5814   -9.1089 C   0  0  0  0  0  0  0  0  0  0  0  0
   -5.3182   -1.9465  -10.5831 C   0  0  0  0  0  0  0  0  0  0  0  0
   -5.8028   -3.3176  -11.0605 C   0  0  0  0  0  0  0  0  0  0  0  0
   -7.2672   -3.6044  -11.2671 N   0  0  0  0  0  0  0  0  0  0  0  0
   -7.9278   -2.5297  -12.1321 C   0  0  0  0  0  0  0  0  0  0  0  0
   -9.0801   -3.0408  -13.0038 C   0  0  0  0  0  0  0  0  0  0  0  0
   -9.5379   -1.9257  -13.9518 C   0  0  0  0  0  0  0  0  0  0  0  0
   -9.9899   -0.6882  -13.1891 C   0  0  0  0  0  0  0  0  0  0  0  0
   -8.8731   -0.2155  -12.2689 C   0  0  0  0  0  0  0  0  0  0  0  0
   -8.4594   -1.3438  -11.3211 C   0  0  0  0  0  0  0  0  0  0  0  0
   -7.3010   -4.9221  -11.9429 C   0  0  0  0  0  0  0  0  0  0  0  0
   -7.9619   -3.7784   -9.9781 C   0  0  0  0  0  0  0  0  0  0  0  0
   -0.0093    0.5363    0.5746 H   0  0  0  0  0  0  0  0  0  0  0  0
    0.8831    1.9647    1.0851 H   0  0  0  0  0  0  0  0  0  0  0  0
    1.7060    0.4093    0.9700 H   0  0  0  0  0  0  0  0  0  0  0  0
    0.5312    1.9516   -1.3923 H   0  0  0  0  0  0  0  0  0  0  0  0
    2.2320    1.9470   -0.9477 H   0  0  0  0  0  0  0  0  0  0  0  0
    1.9069    0.3959   -2.7658 H   0  0  0  0  0  0  0  0  0  0  0  0
    2.3758   -0.4776   -1.3137 H   0  0  0  0  0  0  0  0  0  0  0  0
    0.6604   -1.7020   -2.5092 H   0  0  0  0  0  0  0  0  0  0  0  0
    0.0774   -1.2097   -0.9293 H   0  0  0  0  0  0  0  0  0  0  0  0
   -1.6834   -0.9355   -2.5521 H   0  0  0  0  0  0  0  0  0  0  0  0
   -1.2127    0.6332   -1.9254 H   0  0  0  0  0  0  0  0  0  0  0  0
   -1.5963    0.8217   -4.2923 H   0  0  0  0  0  0  0  0  0  0  0  0
    0.1028    1.0981   -3.9600 H   0  0  0  0  0  0  0  0  0  0  0  0
   -0.1676   -0.2342   -5.9736 H   0  0  0  0  0  0  0  0  0  0  0  0
    0.6982   -1.1356   -4.7439 H   0  0  0  0  0  0  0  0  0  0  0  0
   -0.8944   -2.5599   -5.9273 H   0  0  0  0  0  0  0  0  0  0  0  0
   -1.2541   -2.4720   -4.2125 H   0  0  0  0  0  0  0  0  0  0  0  0
   -3.3185   -2.3980   -5.4432 H   0  0  0  0  0  0  0  0  0  0  0  0
   -3.0718   -0.8669   -4.6252 H   0  0  0  0  0  0  0  0  0  0  0  0
   -3.9309   -0.3685   -6.7858 H   0  0  0  0  0  0  0  0  0  0  0  0
   -2.2563    0.1460   -6.7511 H   0  0  0  0  0  0  0  0  0  0  0  0
   -2.7386   -0.8861   -8.8804 H   0  0  0  0  0  0  0  0  0  0  0  0
   -1.5518   -1.8367   -8.0082 H   0  0  0  0  0  0  0  0  0  0  0  0
   -3.1866   -3.2618   -9.1503 H   0  0  0  0  0  0  0  0  0  0  0  0
   -3.1686   -3.5245   -7.4169 H   0  0  0  0  0  0  0  0  0  0  0  0
   -5.4559   -3.5548   -8.2133 H   0  0  0  0  0  0  0  0  0  0  0  0
   -5.2002   -2.2262   -7.1049 H   0  0  0  0  0  0  0  0  0  0  0  0
   -6.5754   -1.4143   -8.8795 H   0  0  0  0  0  0  0  0  0  0  0  0
   -5.0222   -0.6241   -8.9533 H   0  0  0  0  0  0  0  0  0  0  0  0
   -5.7133   -1.1519  -11.2155 H   0  0  0  0  0  0  0  0  0  0  0  0
   -4.2404   -1.9662  -10.7605 H   0  0  0  0  0  0  0  0  0  0  0  0
   -5.3284   -3.4985  -12.0280 H   0  0  0  0  0  0  0  0  0  0  0  0
   -5.4331   -4.0695  -10.3613 H   0  0  0  0  0  0  0  0  0  0  0  0
   -7.1364   -2.1780  -12.8017 H   0  0  0  0  0  0  0  0  0  0  0  0
   -8.7844   -3.8832  -13.6258 H   0  0  0  0  0  0  0  0  0  0  0  0
   -9.9229   -3.3447  -12.3802 H   0  0  0  0  0  0  0  0  0  0  0  0
  -10.3536   -2.3039  -14.5676 H   0  0  0  0  0  0  0  0  0  0  0  0
   -8.7148   -1.6617  -14.6189 H   0  0  0  0  0  0  0  0  0  0  0  0
  -10.8777   -0.9214  -12.5985 H   0  0  0  0  0  0  0  0  0  0  0  0
  -10.2557    0.1010  -13.8911 H   0  0  0  0  0  0  0  0  0  0  0  0
   -9.2079    0.6377  -11.6793 H   0  0  0  0  0  0  0  0  0  0  0  0
   -8.0149    0.1063  -12.8622 H   0  0  0  0  0  0  0  0  0  0  0  0
   -9.3416   -1.6438  -10.7541 H   0  0  0  0  0  0  0  0  0  0  0  0
   -7.7196   -0.9566  -10.6265 H   0  0  0  0  0  0  0  0  0  0  0  0
   -6.6980   -5.6344  -11.3815 H   0  0  0  0  0  0  0  0  0  0  0  0
   -8.3180   -5.3026  -11.9893 H   0  0  0  0  0  0  0  0  0  0  0  0
   -6.8945   -4.8494  -12.9494 H   0  0  0  0  0  0  0  0  0  0  0  0
   -7.5396   -4.6302   -9.4477 H   0  0  0  0  0  0  0  0  0  0  0  0
   -7.8558   -2.8988   -9.3535 H   0  0  0  0  0  0  0  0  0  0  0  0
   -9.0186   -3.9709  -10.1510 H   0  0  0  0  0  0  0  0  0  0  0  0
  1  2  1  0  0  0  0
  2  3  1  0  0  0  0
  3  4  1  0  0  0  0
  4  5  1  0  0  0  0
  5  6  1  0  0  0  0
  6  7  1  0  0  0  0
  7  8  1  0  0  0  0
  8  9  1  0  0  0  0
  9 10  1  0  0  0  0
 10 11  1  0  0  0  0
 11 12  1  0  0  0  0
 12 13  1  0  0  0  0
 13 14  1  0  0  0  0
 14 15  1  0  0  0  0
 15 16  1  0  0  0  0
 16 17  1  0  0  0  0
 17 18  1  0  0  0  0
 18 19  1  0  0  0  0
 19 20  1  0  0  0  0
 20 21  1  0  0  0  0
 21 22  1  0  0  0  0
 18 23  1  0  0  0  0
 22 23  1  0  0  0  0
 17 24  1  0  0  0  0
 17 25  1  0  0  0  0
  1 26  1  0  0  0  0
  1 27  1  0  0  0  0
  1 28  1  0  0  0  0
  2 29  1  0  0  0  0
  2 30  1  0  0  0  0
  3 31  1  0  0  0  0
  3 32  1  0  0  0  0
  4 33  1  0  0  0  0
  4 34  1  0  0  0  0
  5 35  1  0  0  0  0
  5 36  1  0  0  0  0
  6 37  1  0  0  0  0
  6 38  1  0  0  0  0
  7 39  1  0  0  0  0
  7 40  1  0  0  0  0
  8 41  1  0  0  0  0
  8 42  1  0  0  0  0
  9 43  1  0  0  0  0
  9 44  1  0  0  0  0
 10 45  1  0  0  0  0
 10 46  1  0  0  0  0
 11 47  1  0  0  0  0
 11 48  1  0  0  0  0
 12 49  1  0  0  0  0
 12 50  1  0  0  0  0
 13 51  1  0  0  0  0
 13 52  1  0  0  0  0
 14 53  1  0  0  0  0
 14 54  1  0  0  0  0
 15 55  1  0  0  0  0
 15 56  1  0  0  0  0
 16 57  1  0  0  0  0
 16 58  1  0  0  0  0
 18 59  1  0  0  0  0
 19 60  1  0  0  0  0
 19 61  1  0  0  0  0
 20 62  1  0  0  0  0
 20 63  1  0  0  0  0
 21 64  1  0  0  0  0
 21 65  1  0  0  0  0
 22 66  1  0  0  0  0
 22 67  1  0  0  0  0
 23 68  1  0  0  0  0
 23 69  1  0  0  0  0
 24 70  1  0  0  0  0
 24 71  1  0  0  0  0
 24 72  1  0  0  0  0
 25 73  1  0  0  0  0
 25 74  1  0  0  0  0
 25 75  1  0  0  0  0
M  CHG  1   1   1
M  END
