 xtb: 6.7.1 (edcfbbe)
          12202406513D

 72 73  0     0  0            999 V2000
    1.2693   -0.4787   -0.6322 C   0  0  0  0  0  0  0  0  0  0  0  0
    1.2507   -1.3478    0.6192 C   0  0  0  0  0  0  0  0  0  0  0  0
    1.4199   -0.5486    1.9117 C   0  0  0  0  0  0  0  0  0  0  0  0
    0.3134    0.4706    2.1909 C   0  0  0  0  0  0  0  0  0  0  0  0
   -1.0932   -0.1185    2.3070 C   0  0  0  0  0  0  0  0  0  0  0  0
   -1.2665   -1.1694    3.4053 C   0  0  0  0  0  0  0  0  0  0  0  0
   -0.9230   -0.6898    4.8165 C   0  0  0  0  0  0  0  0  0  0  0  0
   -1.7215    0.5231    5.2975 C   0  0  0  0  0  0  0  0  0  0  0  0
   -3.2376    0.3231    5.3367 C   0  0  0  0  0  0  0  0  0  0  0  0
   -3.7158   -0.8106    6.2461 C   0  0  0  0  0  0  0  0  0  0  0  0
   -3.2805   -0.6907    7.7080 C   0  0  0  0  0  0  0  0  0  0  0  0
   -3.7038    0.6056    8.4009 C   0  0  0  0  0  0  0  0  0  0  0  0
   -5.2146    0.8364    8.4675 C   0  0  0  0  0  0  0  0  0  0  0  0
   -5.9974   -0.2347    9.2300 C   0  0  0  0  0  0  0  0  0  0  0  0
   -5.5341   -0.4705   10.6700 C   0  0  0  0  0  0  0  0  0  0  0  0
   -5.5231    0.7793   11.5538 C   0  0  0  0  0  0  0  0  0  0  0  0
   -6.8904    1.4304   11.7617 C   0  0  0  0  0  0  0  0  0  0  0  0
   -7.8558    0.5909   12.6100 C   0  0  0  0  0  0  0  0  0  0  0  0
   -7.3554    0.4499   13.9654 N   0  0  0  0  0  0  0  0  0  0  0  0
   -6.6508   -0.6561   14.3099 C   0  0  0  0  0  0  0  0  0  0  0  0
   -6.0924   -0.7854   15.5464 C   0  0  0  0  0  0  0  0  0  0  0  0
   -6.2321    0.2429   16.5042 C   0  0  0  0  0  0  0  0  0  0  0  0
   -6.9799    1.3988   16.1202 C   0  0  0  0  0  0  0  0  0  0  0  0
   -7.5166    1.4410   14.8308 C   0  0  0  0  0  0  0  0  0  0  0  0
   -7.1475    2.4548   17.0448 C   0  0  0  0  0  0  0  0  0  0  0  0
   -6.5945    2.3609   18.2923 C   0  0  0  0  0  0  0  0  0  0  0  0
   -5.8605    1.2218   18.6689 C   0  0  0  0  0  0  0  0  0  0  0  0
   -5.6801    0.1806   17.7949 C   0  0  0  0  0  0  0  0  0  0  0  0
    0.4091    0.1853   -0.6612 H   0  0  0  0  0  0  0  0  0  0  0  0
    1.2453   -1.1011   -1.5238 H   0  0  0  0  0  0  0  0  0  0  0  0
    2.1727    0.1267   -0.6621 H   0  0  0  0  0  0  0  0  0  0  0  0
    0.3199   -1.9169    0.6543 H   0  0  0  0  0  0  0  0  0  0  0  0
    2.0688   -2.0700    0.5577 H   0  0  0  0  0  0  0  0  0  0  0  0
    1.4846   -1.2474    2.7485 H   0  0  0  0  0  0  0  0  0  0  0  0
    2.3701   -0.0101    1.8645 H   0  0  0  0  0  0  0  0  0  0  0  0
    0.5602    0.9988    3.1145 H   0  0  0  0  0  0  0  0  0  0  0  0
    0.3067    1.2151    1.3922 H   0  0  0  0  0  0  0  0  0  0  0  0
   -1.7929    0.7021    2.4815 H   0  0  0  0  0  0  0  0  0  0  0  0
   -1.3700   -0.5745    1.3545 H   0  0  0  0  0  0  0  0  0  0  0  0
   -2.3016   -1.5179    3.3849 H   0  0  0  0  0  0  0  0  0  0  0  0
   -0.6370   -2.0318    3.1767 H   0  0  0  0  0  0  0  0  0  0  0  0
   -1.0787   -1.5217    5.5073 H   0  0  0  0  0  0  0  0  0  0  0  0
    0.1380   -0.4358    4.8595 H   0  0  0  0  0  0  0  0  0  0  0  0
   -1.3660    0.7932    6.2945 H   0  0  0  0  0  0  0  0  0  0  0  0
   -1.5083    1.3720    4.6452 H   0  0  0  0  0  0  0  0  0  0  0  0
   -3.6983    1.2610    5.6554 H   0  0  0  0  0  0  0  0  0  0  0  0
   -3.5983    0.1215    4.3265 H   0  0  0  0  0  0  0  0  0  0  0  0
   -4.8062   -0.8543    6.1942 H   0  0  0  0  0  0  0  0  0  0  0  0
   -3.3425   -1.7608    5.8598 H   0  0  0  0  0  0  0  0  0  0  0  0
   -3.6814   -1.5462    8.2568 H   0  0  0  0  0  0  0  0  0  0  0  0
   -2.1927   -0.7619    7.7620 H   0  0  0  0  0  0  0  0  0  0  0  0
   -3.2878    0.6071    9.4114 H   0  0  0  0  0  0  0  0  0  0  0  0
   -3.2573    1.4511    7.8755 H   0  0  0  0  0  0  0  0  0  0  0  0
   -5.3952    1.8141    8.9211 H   0  0  0  0  0  0  0  0  0  0  0  0
   -5.6123    0.8825    7.4529 H   0  0  0  0  0  0  0  0  0  0  0  0
   -7.0553    0.0400    9.2226 H   0  0  0  0  0  0  0  0  0  0  0  0
   -5.9158   -1.1821    8.6956 H   0  0  0  0  0  0  0  0  0  0  0  0
   -6.1717   -1.2423   11.1100 H   0  0  0  0  0  0  0  0  0  0  0  0
   -4.5207   -0.8729   10.6521 H   0  0  0  0  0  0  0  0  0  0  0  0
   -5.0831    0.5264   12.5235 H   0  0  0  0  0  0  0  0  0  0  0  0
   -4.8683    1.5203   11.0964 H   0  0  0  0  0  0  0  0  0  0  0  0
   -6.7541    2.4020   12.2422 H   0  0  0  0  0  0  0  0  0  0  0  0
   -7.3618    1.6035   10.7953 H   0  0  0  0  0  0  0  0  0  0  0  0
   -8.8320    1.0789   12.6431 H   0  0  0  0  0  0  0  0  0  0  0  0
   -7.9763   -0.3992   12.1702 H   0  0  0  0  0  0  0  0  0  0  0  0
   -6.5599   -1.4272   13.5617 H   0  0  0  0  0  0  0  0  0  0  0  0
   -5.5388   -1.6766   15.7956 H   0  0  0  0  0  0  0  0  0  0  0  0
   -8.0876    2.2992   14.5052 H   0  0  0  0  0  0  0  0  0  0  0  0
   -7.7113    3.3266   16.7510 H   0  0  0  0  0  0  0  0  0  0  0  0
   -6.7189    3.1650   19.0008 H   0  0  0  0  0  0  0  0  0  0  0  0
   -5.4370    1.1735   19.6600 H   0  0  0  0  0  0  0  0  0  0  0  0
   -5.1173   -0.6936   18.0829 H   0  0  0  0  0  0  0  0  0  0  0  0
  1  2  1  0  0  0  0
  2  3  1  0  0  0  0
  3  4  1  0  0  0  0
  4  5  1  0  0  0  0
  5  6  1  0  0  0  0
  6  7  1  0  0  0  0
  7  8  1  0  0  0  0
  8  9  1  0  0  0  0
  9 10  1  0  0  0  0
 10 11  1  0  0  0  0
 11 12  1  0  0  0  0
 12 13  1  0  0  0  0
 13 14  1  0  0  0  0
 14 15  1  0  0  0  0
 15 16  1  0  0  0  0
 16 17  1  0  0  0  0
 17 18  1  0  0  0  0
 18 19  1  0  0  0  0
 19 20  4  0  0  0  0
 20 21  2  0  0  0  0
 21 22  4  0  0  0  0
 22 23  4  0  0  0  0
 19 24  4  0  0  0  0
 23 24  4  0  0  0  0
 23 25  4  0  0  0  0
 25 26  2  0  0  0  0
 26 27  4  0  0  0  0
 22 28  4  0  0  0  0
 27 28  2  0  0  0  0
  1 29  1  0  0  0  0
  1 30  1  0  0  0  0
  1 31  1  0  0  0  0
  2 32  1  0  0  0  0
  2 33  1  0  0  0  0
  3 34  1  0  0  0  0
  3 35  1  0  0  0  0
  4 36  1  0  0  0  0
  4 37  1  0  0  0  0
  5 38  1  0  0  0  0
  5 39  1  0  0  0  0
  6 40  1  0  0  0  0
  6 41  1  0  0  0  0
  7 42  1  0  0  0  0
  7 43  1  0  0  0  0
  8 44  1  0  0  0  0
  8 45  1  0  0  0  0
  9 46  1  0  0  0  0
  9 47  1  0  0  0  0
 10 48  1  0  0  0  0
 10 49  1  0  0  0  0
 11 50  1  0  0  0  0
 11 51  1  0  0  0  0
 12 52  1  0  0  0  0
 12 53  1  0  0  0  0
 13 54  1  0  0  0  0
 13 55  1  0  0  0  0
 14 56  1  0  0  0  0
 14 57  1  0  0  0  0
 15 58  1  0  0  0  0
 15 59  1  0  0  0  0
 16 60  1  0  0  0  0
 16 61  1  0  0  0  0
 17 62  1  0  0  0  0
 17 63  1  0  0  0  0
 18 64  1  0  0  0  0
 18 65  1  0  0  0  0
 20 66  1  0  0  0  0
 21 67  1  0  0  0  0
 24 68  1  0  0  0  0
 25 69  1  0  0  0  0
 26 70  1  0  0  0  0
 27 71  1  0  0  0  0
 28 72  1  0  0  0  0
M  CHG  1   1   1
M  END
