 xtb: 6.7.1 (edcfbbe)
          12202406513D

 41 43  0     0  0            999 V2000
   -1.5998    2.5318   -0.7463 Cl  0  0  0  0  0  0  0  0  0  0  0  0
   -0.0679    1.7819   -0.5486 C   0  0  0  0  0  0  0  0  0  0  0  0
    0.1346    0.4841   -1.0060 C   0  0  0  0  0  0  0  0  0  0  0  0
    1.3722   -0.1040   -0.8532 C   0  0  0  0  0  0  0  0  0  0  0  0
    2.4294    0.5967   -0.2646 C   0  0  0  0  0  0  0  0  0  0  0  0
    2.2008    1.8880    0.2171 C   0  0  0  0  0  0  0  0  0  0  0  0
    0.9606    2.4750    0.0827 C   0  0  0  0  0  0  0  0  0  0  0  0
    3.7371   -0.0751   -0.1859 C   0  0  0  0  0  0  0  0  0  0  0  0
    3.8879   -1.2666   -0.1795 O   0  0  0  0  0  0  0  0  0  0  0  0
    4.9774    0.8601   -0.1890 C   0  0  0  0  0  0  0  0  0  0  0  0
    4.8545    1.8383   -1.2385 N   0  0  0  0  0  0  0  0  0  0  0  0
    4.5586    1.4873   -2.5280 C   0  0  0  0  0  0  0  0  0  0  0  0
    4.4137    2.6346   -3.2366 C   0  0  0  0  0  0  0  0  0  0  0  0
    4.6272    3.6708   -2.3761 N   0  0  0  0  0  0  0  0  0  0  0  0
    4.8959    3.1746   -1.1616 C   0  0  0  0  0  0  0  0  0  0  0  0
    5.2155    4.0095    0.0131 C   0  0  0  0  0  0  0  0  0  0  0  0
    4.4612    5.0746   -2.6857 C   0  0  0  0  0  0  0  0  0  0  0  0
    3.2191    5.6245   -2.0170 C   0  0  0  0  0  0  0  0  0  0  0  0
    1.9983    4.9829   -2.1901 C   0  0  0  0  0  0  0  0  0  0  0  0
    0.8568    5.4869   -1.5924 C   0  0  0  0  0  0  0  0  0  0  0  0
    0.9269    6.6322   -0.8168 C   0  0  0  0  0  0  0  0  0  0  0  0
    2.1414    7.2732   -0.6394 C   0  0  0  0  0  0  0  0  0  0  0  0
    3.2860    6.7687   -1.2339 C   0  0  0  0  0  0  0  0  0  0  0  0
   -0.6741   -0.0566   -1.4710 H   0  0  0  0  0  0  0  0  0  0  0  0
    1.5466   -1.1127   -1.1957 H   0  0  0  0  0  0  0  0  0  0  0  0
    2.9712    2.4246    0.7478 H   0  0  0  0  0  0  0  0  0  0  0  0
    0.7812    3.4658    0.4683 H   0  0  0  0  0  0  0  0  0  0  0  0
    5.0724    1.3402    0.7852 H   0  0  0  0  0  0  0  0  0  0  0  0
    5.8591    0.2344   -0.3582 H   0  0  0  0  0  0  0  0  0  0  0  0
    4.4785    0.4646   -2.8341 H   0  0  0  0  0  0  0  0  0  0  0  0
    4.1859    2.7835   -4.2720 H   0  0  0  0  0  0  0  0  0  0  0  0
    4.3691    4.6498    0.2663 H   0  0  0  0  0  0  0  0  0  0  0  0
    5.4802    3.4082    0.8772 H   0  0  0  0  0  0  0  0  0  0  0  0
    6.0596    4.6614   -0.2144 H   0  0  0  0  0  0  0  0  0  0  0  0
    5.3443    5.6285   -2.3573 H   0  0  0  0  0  0  0  0  0  0  0  0
    4.3784    5.1682   -3.7712 H   0  0  0  0  0  0  0  0  0  0  0  0
    1.9339    4.0928   -2.8007 H   0  0  0  0  0  0  0  0  0  0  0  0
   -0.0882    4.9880   -1.7411 H   0  0  0  0  0  0  0  0  0  0  0  0
    0.0356    7.0281   -0.3561 H   0  0  0  0  0  0  0  0  0  0  0  0
    2.2006    8.1683   -0.0405 H   0  0  0  0  0  0  0  0  0  0  0  0
    4.2294    7.2776   -1.1013 H   0  0  0  0  0  0  0  0  0  0  0  0
  1  2  1  0  0  0  0
  2  3  4  0  0  0  0
  3  4  4  0  0  0  0
  4  5  4  0  0  0  0
  5  6  4  0  0  0  0
  2  7  4  0  0  0  0
  6  7  4  0  0  0  0
  5  8  1  0  0  0  0
  8  9  2  0  0  0  0
  8 10  1  0  0  0  0
 10 11  1  0  0  0  0
 11 12  1  0  0  0  0
 12 13  2  0  0  0  0
 13 14  4  0  0  0  0
 11 15  4  0  0  0  0
 14 15  4  0  0  0  0
 15 16  1  0  0  0  0
 14 17  1  0  0  0  0
 17 18  1  0  0  0  0
 18 19  4  0  0  0  0
 19 20  4  0  0  0  0
 20 21  4  0  0  0  0
 21 22  4  0  0  0  0
 18 23  4  0  0  0  0
 22 23  4  0  0  0  0
  3 24  1  0  0  0  0
  4 25  1  0  0  0  0
  6 26  1  0  0  0  0
  7 27  1  0  0  0  0
 10 28  1  0  0  0  0
 10 29  1  0  0  0  0
 12 30  1  0  0  0  0
 13 31  1  0  0  0  0
 16 32  1  0  0  0  0
 16 33  1  0  0  0  0
 16 34  1  0  0  0  0
 17 35  1  0  0  0  0
 17 36  1  0  0  0  0
 19 37  1  0  0  0  0
 20 38  1  0  0  0  0
 21 39  1  0  0  0  0
 22 40  1  0  0  0  0
 23 41  1  0  0  0  0
M  CHG  1   1   1
M  END
