50

C          2.52994       -0.77156       -0.33837
C          1.51816       -1.60191       -1.11189
C          1.07205       -2.86691       -0.38202
C          0.23583       -2.65825        0.88272
P         -1.52513       -2.52885        0.72425
C         -2.12389       -3.89155       -0.28128
C         -1.54927       -5.29171       -0.08120
C         -1.90311       -5.94071        1.24379
C         -2.37042       -2.64899        2.29230
C         -1.61926       -2.28011        3.57180
C         -1.94412       -0.91207        4.17416
C         -3.39717       -0.75726        4.60069
C         -2.06991       -1.06623       -0.13829
C         -2.21621        0.24723        0.62111
C         -0.90596        0.94833        0.96959
C         -0.31611        1.71861       -0.20166
H          2.10803       -0.37282        0.58739
H          2.85805        0.07817       -0.94599
H          3.41355       -1.36625       -0.08649
H          0.65648       -0.98910       -1.37565
H          1.98201       -1.90123       -2.06027
H          0.51796       -3.48368       -1.09515
H          1.97047       -3.43675       -0.11268
H          0.40615       -3.54041        1.51320
H          0.62641       -1.81779        1.46001
H         -3.21527       -3.93205       -0.18246
H         -1.93043       -3.61259       -1.32458
H         -1.93256       -5.93194       -0.88534
H         -0.46101       -5.28227       -0.18504
H         -2.98088       -5.90494        1.42962
H         -1.59851       -6.99258        1.23800
H         -1.38007       -5.45697        2.07316
H         -3.32172       -2.11570        2.21600
H         -2.66882       -3.69353        2.41006
H         -1.85252       -3.03520        4.33421
H         -0.53944       -2.34302        3.41330
H         -1.31414       -0.77389        5.06170
H         -1.67266       -0.11227        3.48269
H         -3.70408       -1.57694        5.25810
H         -3.53003        0.18190        5.14744
H         -4.07283       -0.73261        3.74133
H         -1.46999       -0.91932       -1.03917
H         -3.07526       -1.30973       -0.50692
H         -2.83486        0.93103        0.02608
H         -2.77950        0.06312        1.53924
H         -1.09893        1.66670        1.77579
H         -0.17591        0.23537        1.35776
H         -0.98841        2.52480       -0.51280
H          0.63807        2.17068        0.08729
H         -0.13937        1.07641       -1.06657
