26

C          1.18058        0.08234        0.29478
C          0.66860        1.49252        0.08287
N          1.00259        1.99409       -1.28661
C          0.43745        1.24357       -2.49492
C         -1.08337        1.36861       -2.65566
O         -1.63495        1.98395       -3.55652
O         -1.71999        0.74183       -1.62843
C         -3.16029        0.76116       -1.67232
C         -3.70203        2.09479       -1.18914
C          1.15218        1.80050       -3.72570
H          0.62095       -0.64450       -0.30147
H          1.06609       -0.20315        1.34544
H          2.24104       -0.00135        0.03581
H         -0.40907        1.57824        0.23624
H          1.16493        2.17860        0.77692
H          0.68961        2.97382       -1.35413
H          2.02735        2.02823       -1.37146
H          0.70497        0.18787       -2.38901
H         -3.51731        0.51887       -2.67959
H         -3.50469       -0.03511       -1.00431
H         -3.41371        2.90778       -1.86261
H         -4.79399        2.06933       -1.13126
H         -3.29911        2.34204       -0.20181
H          2.23677        1.67049       -3.64614
H          0.81953        1.28590       -4.63374
H          0.94701        2.86918       -3.85758
