42

C          1.96587        0.24140       -0.95720
C          0.93961       -0.33821       -1.91900
C          0.81076       -1.86439       -1.84537
C          0.37384       -2.43160       -0.49271
O         -1.02095       -2.72315       -0.42407
C         -1.87587       -1.61272       -0.24561
N         -1.69121       -1.07300        1.08930
C         -1.76776       -1.79293        2.27083
C         -1.52271       -0.91098        3.28423
N         -1.30635        0.32139        2.69286
C         -1.43597        0.21269        1.36286
C         -1.00100        1.56874        3.36669
O          0.07552        2.19520        2.69746
C          1.34831        1.56589        2.85633
C          1.94244        1.71539        4.25841
C          1.81632        0.47569        5.15304
C          2.54506       -0.74817        4.61603
H          1.64552        0.13743        0.08221
H          2.10001        1.31039       -1.15206
H          2.93737       -0.24887       -1.07207
H         -0.02433        0.14798       -1.75029
H          1.24069       -0.07385       -2.94029
H          0.11869       -2.19749       -2.62784
H          1.79511       -2.28439       -2.08930
H          0.87014       -3.40120       -0.36811
H          0.68805       -1.82235        0.35873
H         -1.72603       -0.84809       -1.00864
H         -2.91116       -1.96091       -0.32327
H         -1.97459       -2.84908        2.22604
H         -1.46639       -1.00452        4.35536
H         -1.32930        1.01889        0.64462
H         -1.88029        2.21521        3.27852
H         -0.80089        1.41920        4.42919
H          1.30115        0.52925        2.51404
H          2.01105        2.08708        2.15578
H          3.01272        1.93650        4.15726
H          1.48755        2.57176        4.76984
H          2.23833        0.72211        6.13508
H          0.76701        0.22057        5.32379
H          3.59002       -0.51739        4.38733
H          2.53039       -1.54899        5.36251
H          2.06990       -1.13806        3.71147
