 xtb: 6.7.1 (edcfbbe)
          12202406513D

 42 42  0     0  0            999 V2000
    2.1051    0.2825   -1.2179 C   0  0  0  0  0  0  0  0  0  0  0  0
    0.8749   -0.2632   -1.9342 C   0  0  0  0  0  0  0  0  0  0  0  0
    0.7520   -1.7870   -1.8306 C   0  0  0  0  0  0  0  0  0  0  0  0
    0.4608   -2.3261   -0.4238 C   0  0  0  0  0  0  0  0  0  0  0  0
   -0.8836   -2.7791   -0.2420 O   0  0  0  0  0  0  0  0  0  0  0  0
   -1.8687   -1.8205   -0.2318 C   0  0  0  0  0  0  0  0  0  0  0  0
   -1.8857   -1.1145    1.0585 N   0  0  0  0  0  0  0  0  0  0  0  0
   -2.3132   -1.6527    2.2370 C   0  0  0  0  0  0  0  0  0  0  0  0
   -2.0333   -0.7528    3.2186 C   0  0  0  0  0  0  0  0  0  0  0  0
   -1.4347    0.3184    2.6239 N   0  0  0  0  0  0  0  0  0  0  0  0
   -1.3505    0.0746    1.3200 C   0  0  0  0  0  0  0  0  0  0  0  0
   -0.9524    1.5519    3.2735 C   0  0  0  0  0  0  0  0  0  0  0  0
    0.1376    2.0524    2.6112 O   0  0  0  0  0  0  0  0  0  0  0  0
    1.3993    1.4299    2.8923 C   0  0  0  0  0  0  0  0  0  0  0  0
    1.8841    1.6444    4.3317 C   0  0  0  0  0  0  0  0  0  0  0  0
    1.8518    0.3802    5.1966 C   0  0  0  0  0  0  0  0  0  0  0  0
    2.9621   -0.5978    4.8295 C   0  0  0  0  0  0  0  0  0  0  0  0
    2.0756    0.0811   -0.1486 H   0  0  0  0  0  0  0  0  0  0  0  0
    2.1756    1.3580   -1.3585 H   0  0  0  0  0  0  0  0  0  0  0  0
    3.0056   -0.1722   -1.6215 H   0  0  0  0  0  0  0  0  0  0  0  0
   -0.0226    0.2296   -1.5491 H   0  0  0  0  0  0  0  0  0  0  0  0
    0.9489   -0.0059   -2.9918 H   0  0  0  0  0  0  0  0  0  0  0  0
   -0.0356   -2.1434   -2.4978 H   0  0  0  0  0  0  0  0  0  0  0  0
    1.6872   -2.2221   -2.1824 H   0  0  0  0  0  0  0  0  0  0  0  0
    1.0479   -3.2239   -0.2293 H   0  0  0  0  0  0  0  0  0  0  0  0
    0.7080   -1.5816    0.3440 H   0  0  0  0  0  0  0  0  0  0  0  0
   -1.7583   -1.0676   -1.0220 H   0  0  0  0  0  0  0  0  0  0  0  0
   -2.8238   -2.3438   -0.3416 H   0  0  0  0  0  0  0  0  0  0  0  0
   -2.7664   -2.6218    2.2884 H   0  0  0  0  0  0  0  0  0  0  0  0
   -2.2178   -0.8000    4.2725 H   0  0  0  0  0  0  0  0  0  0  0  0
   -0.9178    0.7526    0.6083 H   0  0  0  0  0  0  0  0  0  0  0  0
   -1.7472    2.3053    3.2060 H   0  0  0  0  0  0  0  0  0  0  0  0
   -0.7624    1.3118    4.3275 H   0  0  0  0  0  0  0  0  0  0  0  0
    1.3392    0.3587    2.6602 H   0  0  0  0  0  0  0  0  0  0  0  0
    2.0721    1.9037    2.1774 H   0  0  0  0  0  0  0  0  0  0  0  0
    2.9080    2.0164    4.3108 H   0  0  0  0  0  0  0  0  0  0  0  0
    1.2730    2.4287    4.7836 H   0  0  0  0  0  0  0  0  0  0  0  0
    1.9755    0.6723    6.2404 H   0  0  0  0  0  0  0  0  0  0  0  0
    0.8839   -0.1228    5.1101 H   0  0  0  0  0  0  0  0  0  0  0  0
    3.9341   -0.1349    4.9744 H   0  0  0  0  0  0  0  0  0  0  0  0
    2.9095   -1.4818    5.4593 H   0  0  0  0  0  0  0  0  0  0  0  0
    2.8890   -0.9142    3.7913 H   0  0  0  0  0  0  0  0  0  0  0  0
  1  2  1  0  0  0  0
  2  3  1  0  0  0  0
  3  4  1  0  0  0  0
  4  5  1  0  0  0  0
  5  6  1  0  0  0  0
  6  7  1  0  0  0  0
  7  8  4  0  0  0  0
  8  9  2  0  0  0  0
  9 10  4  0  0  0  0
  7 11  4  0  0  0  0
 10 11  4  0  0  0  0
 10 12  1  0  0  0  0
 12 13  1  0  0  0  0
 13 14  1  0  0  0  0
 14 15  1  0  0  0  0
 15 16  1  0  0  0  0
 16 17  1  0  0  0  0
  1 18  1  0  0  0  0
  1 19  1  0  0  0  0
  1 20  1  0  0  0  0
  2 21  1  0  0  0  0
  2 22  1  0  0  0  0
  3 23  1  0  0  0  0
  3 24  1  0  0  0  0
  4 25  1  0  0  0  0
  4 26  1  0  0  0  0
  6 27  1  0  0  0  0
  6 28  1  0  0  0  0
  8 29  1  0  0  0  0
  9 30  1  0  0  0  0
 11 31  1  0  0  0  0
 12 32  1  0  0  0  0
 12 33  1  0  0  0  0
 14 34  1  0  0  0  0
 14 35  1  0  0  0  0
 15 36  1  0  0  0  0
 15 37  1  0  0  0  0
 16 38  1  0  0  0  0
 16 39  1  0  0  0  0
 17 40  1  0  0  0  0
 17 41  1  0  0  0  0
 17 42  1  0  0  0  0
M  CHG  1   1   1
M  END
