23

C          1.04734        0.04176        0.03197
C          0.36744        1.12115        0.44252
C         -1.12038        1.27698        0.35749
N         -1.68372        1.39334        1.72412
C         -1.92963        0.27038        2.43892
C         -2.45032        0.34708        3.72384
C         -2.73875        1.59354        4.26869
C         -2.46257        2.74116        3.52982
C         -1.93707        2.61453        2.24885
C         -3.27041        1.76839        5.63822
N         -4.04101        0.98541        6.33066
O         -4.47702       -0.13911        5.63132
H          0.56639       -0.82934       -0.40578
H          2.13310        0.00639        0.11121
H          0.93168        1.95940        0.84882
H         -1.38381        2.17851       -0.20555
H         -1.60895        0.42487       -0.12880
H         -1.69097       -0.68404        1.97676
H         -2.60722       -0.56767        4.28940
H         -2.66075        3.73104        3.93621
H         -1.70912        3.48418        1.63820
H         -2.97801        2.70963        6.13712
H         -5.05162       -0.57889        6.29015
