21

C          0.84895        0.33592        0.09923
O          0.27166        1.17695       -0.90501
C          1.00191        2.28021       -1.18344
O          2.05833        2.60911       -0.67276
C          0.35009        3.07880       -2.25390
C         -0.92113        2.78596       -2.74600
C         -1.46108        3.58006       -3.75137
N         -0.76779        4.62876       -4.25001
C          0.46662        4.92810       -3.78511
C          1.04757        4.16602       -2.78079
C         -1.34671        5.45576       -5.32493
H          0.24306       -0.57166        0.16862
H          0.83265        0.84279        1.06876
H          1.86993        0.04969       -0.17299
H         -1.49816        1.94911       -2.35745
H         -2.44730        3.38185       -4.16299
H          0.97879        5.77897       -4.22700
H          2.04236        4.41802       -2.41437
H         -1.24132        6.50635       -5.04148
H         -0.79288        5.23808       -6.24174
H         -2.40446        5.21386       -5.45217
