 xtb: 6.7.1 (edcfbbe)
          12202406513D

 34 35  0     0  0            999 V2000
    0.3885   -0.6163    0.9312 C   0  0  0  0  0  0  0  0  0  0  0  0
    0.5218   -1.1943   -0.3722 O   0  0  0  0  0  0  0  0  0  0  0  0
    0.0473   -0.4730   -1.3824 C   0  0  0  0  0  0  0  0  0  0  0  0
   -0.4850    0.5896   -1.3017 O   0  0  0  0  0  0  0  0  0  0  0  0
    0.2864   -1.1901   -2.7309 C   0  0  0  0  0  0  0  0  0  0  0  0
    0.5476   -2.5917   -2.5741 N   0  0  0  0  0  0  0  0  0  0  0  0
   -0.3772   -3.5899   -2.6599 C   0  0  0  0  0  0  0  0  0  0  0  0
    0.2601   -4.7574   -2.3770 C   0  0  0  0  0  0  0  0  0  0  0  0
    1.5602   -4.4527   -2.0991 N   0  0  0  0  0  0  0  0  0  0  0  0
    1.7144   -3.1369   -2.2359 C   0  0  0  0  0  0  0  0  0  0  0  0
    2.6429   -5.3765   -1.9378 C   0  0  0  0  0  0  0  0  0  0  0  0
    3.6463   -5.1583   -3.1112 C   0  0  0  0  0  0  0  0  0  0  0  0
    3.4986   -4.1818   -3.8095 O   0  0  0  0  0  0  0  0  0  0  0  0
    4.7087   -6.1437   -3.2684 C   0  0  0  0  0  0  0  0  0  0  0  0
    5.5629   -5.9946   -4.3699 C   0  0  0  0  0  0  0  0  0  0  0  0
    6.5971   -6.8831   -4.5801 C   0  0  0  0  0  0  0  0  0  0  0  0
    6.7976   -7.9312   -3.6940 C   0  0  0  0  0  0  0  0  0  0  0  0
    5.9616   -8.0857   -2.5961 C   0  0  0  0  0  0  0  0  0  0  0  0
    4.9221   -7.2036   -2.3788 C   0  0  0  0  0  0  0  0  0  0  0  0
    0.6813   -1.3894    1.6358 H   0  0  0  0  0  0  0  0  0  0  0  0
   -0.6425   -0.3057    1.1022 H   0  0  0  0  0  0  0  0  0  0  0  0
    1.0406    0.2530    1.0214 H   0  0  0  0  0  0  0  0  0  0  0  0
   -0.5967   -1.0364   -3.3548 H   0  0  0  0  0  0  0  0  0  0  0  0
    1.1371   -0.6994   -3.2135 H   0  0  0  0  0  0  0  0  0  0  0  0
   -1.4005   -3.4094   -2.9192 H   0  0  0  0  0  0  0  0  0  0  0  0
   -0.1173   -5.7593   -2.3519 H   0  0  0  0  0  0  0  0  0  0  0  0
    2.6264   -2.5959   -2.0800 H   0  0  0  0  0  0  0  0  0  0  0  0
    3.1745   -5.1901   -1.0004 H   0  0  0  0  0  0  0  0  0  0  0  0
    2.2541   -6.3944   -1.9432 H   0  0  0  0  0  0  0  0  0  0  0  0
    5.3903   -5.1725   -5.0477 H   0  0  0  0  0  0  0  0  0  0  0  0
    7.2481   -6.7603   -5.4315 H   0  0  0  0  0  0  0  0  0  0  0  0
    7.6062   -8.6273   -3.8546 H   0  0  0  0  0  0  0  0  0  0  0  0
    6.1246   -8.8994   -1.9065 H   0  0  0  0  0  0  0  0  0  0  0  0
    4.2933   -7.3405   -1.5131 H   0  0  0  0  0  0  0  0  0  0  0  0
  1  2  1  0  0  0  0
  2  3  1  0  0  0  0
  3  4  2  0  0  0  0
  3  5  1  0  0  0  0
  5  6  1  0  0  0  0
  6  7  4  0  0  0  0
  7  8  2  0  0  0  0
  8  9  4  0  0  0  0
  6 10  4  0  0  0  0
  9 10  4  0  0  0  0
  9 11  1  0  0  0  0
 11 12  1  0  0  0  0
 12 13  2  0  0  0  0
 12 14  1  0  0  0  0
 14 15  4  0  0  0  0
 15 16  4  0  0  0  0
 16 17  4  0  0  0  0
 17 18  4  0  0  0  0
 14 19  4  0  0  0  0
 18 19  4  0  0  0  0
  1 20  1  0  0  0  0
  1 21  1  0  0  0  0
  1 22  1  0  0  0  0
  5 23  1  0  0  0  0
  5 24  1  0  0  0  0
  7 25  1  0  0  0  0
  8 26  1  0  0  0  0
 10 27  1  0  0  0  0
 11 28  1  0  0  0  0
 11 29  1  0  0  0  0
 15 30  1  0  0  0  0
 16 31  1  0  0  0  0
 17 32  1  0  0  0  0
 18 33  1  0  0  0  0
 19 34  1  0  0  0  0
M  CHG  1   1   1
M  END
