 xtb: 6.7.1 (edcfbbe)
          12202406513D

 20 19  0     0  0            999 V2000
    1.0474   -0.0487    0.0411 N   0  0  0  0  0  0  0  0  0  0  0  0
    0.5912   -0.2727    1.4490 C   0  0  0  0  0  0  0  0  0  0  0  0
    1.0518    0.8784    2.3315 C   0  0  0  0  0  0  0  0  0  0  0  0
    0.5107    2.2585    1.9227 C   0  0  0  0  0  0  0  0  0  0  0  0
   -1.0161    2.2944    1.9147 C   0  0  0  0  0  0  0  0  0  0  0  0
    1.0522    3.3024    2.8982 C   0  0  0  0  0  0  0  0  0  0  0  0
    0.6968    0.8717   -0.2648 H   0  0  0  0  0  0  0  0  0  0  0  0
    0.7039   -0.7775   -0.5953 H   0  0  0  0  0  0  0  0  0  0  0  0
    2.0750   -0.0273    0.0047 H   0  0  0  0  0  0  0  0  0  0  0  0
   -0.4961   -0.3466    1.4501 H   0  0  0  0  0  0  0  0  0  0  0  0
    1.0066   -1.2163    1.8038 H   0  0  0  0  0  0  0  0  0  0  0  0
    0.7193    0.6674    3.3482 H   0  0  0  0  0  0  0  0  0  0  0  0
    2.1431    0.9103    2.3521 H   0  0  0  0  0  0  0  0  0  0  0  0
    0.8802    2.5257    0.9221 H   0  0  0  0  0  0  0  0  0  0  0  0
   -1.4063    1.9641    2.8736 H   0  0  0  0  0  0  0  0  0  0  0  0
   -1.3578    3.3122    1.7508 H   0  0  0  0  0  0  0  0  0  0  0  0
   -1.4498    1.6754    1.1316 H   0  0  0  0  0  0  0  0  0  0  0  0
    2.1388    3.2871    2.9215 H   0  0  0  0  0  0  0  0  0  0  0  0
    0.7334    4.2977    2.6037 H   0  0  0  0  0  0  0  0  0  0  0  0
    0.6837    3.1105    3.9019 H   0  0  0  0  0  0  0  0  0  0  0  0
  1  2  1  0  0  0  0
  2  3  1  0  0  0  0
  3  4  1  0  0  0  0
  4  5  1  0  0  0  0
  4  6  1  0  0  0  0
  1  7  1  0  0  0  0
  1  8  1  0  0  0  0
  1  9  1  0  0  0  0
  2 10  1  0  0  0  0
  2 11  1  0  0  0  0
  3 12  1  0  0  0  0
  3 13  1  0  0  0  0
  4 14  1  0  0  0  0
  5 15  1  0  0  0  0
  5 16  1  0  0  0  0
  5 17  1  0  0  0  0
  6 18  1  0  0  0  0
  6 19  1  0  0  0  0
  6 20  1  0  0  0  0
M  CHG  1   1   1
M  END
