34

C          0.81676       -0.25551        0.16866
C         -0.05069       -0.15137        1.41538
C          0.37938        0.99276        2.30072
C          1.13399        0.75219        3.45342
C          1.57135        1.81512        4.24602
C          1.26705        3.13684        3.89374
C          0.49280        3.38021        2.75370
C          0.05306        2.31258        1.96487
C          1.86844        4.23353        4.71003
O          2.61614        3.95369        5.64713
C          1.70776        5.67601        4.26372
N          2.54491        5.97452        3.08489
C          2.31855        6.98620        2.16468
C          3.29430        6.88009        1.21390
N          4.10350        5.82258        1.59072
C          3.68127        5.32917        2.76468
C          5.24006        5.30019        0.84164
H          0.73969        0.64649       -0.44807
H          0.50309       -1.10828       -0.44146
H          1.87175       -0.39296        0.42975
H         -1.10100       -0.01555        1.13123
H         -0.00258       -1.09516        1.97183
H          1.39524       -0.26597        3.73875
H          2.16701        1.59667        5.13199
H          0.22212        4.38096        2.43388
H         -0.54141        2.51240        1.07410
H          0.65840        5.90083        4.05153
H          2.02790        6.33724        5.07673
H          1.47877        7.64663        2.29883
H          3.51851        7.41972        0.30963
H          4.15539        4.52796        3.32339
H          5.95725        4.84735        1.53123
H          4.87645        4.54351        0.14084
H          5.72722        6.11019        0.29292
