 xtb: 6.7.1 (edcfbbe)
          12202406513D

 50 50  0     0  0            999 V2000
    1.0909   -0.0815   -0.2433 C   0  0  0  0  0  0  0  0  0  0  0  0
    0.6890   -0.8983    0.9788 C   0  0  0  0  0  0  0  0  0  0  0  0
    1.1296   -0.2657    2.2999 C   0  0  0  0  0  0  0  0  0  0  0  0
    0.5307    1.1131    2.5872 C   0  0  0  0  0  0  0  0  0  0  0  0
   -0.9979    1.1571    2.6370 C   0  0  0  0  0  0  0  0  0  0  0  0
   -1.6364    0.2422    3.6837 C   0  0  0  0  0  0  0  0  0  0  0  0
   -1.2019    0.5048    5.1280 C   0  0  0  0  0  0  0  0  0  0  0  0
   -1.4534    1.9294    5.6293 C   0  0  0  0  0  0  0  0  0  0  0  0
   -2.9175    2.3694    5.6103 C   0  0  0  0  0  0  0  0  0  0  0  0
   -3.8005    1.6381    6.6281 C   0  0  0  0  0  0  0  0  0  0  0  0
   -3.4374    1.9924    7.9831 N   0  0  0  0  0  0  0  0  0  0  0  0
   -3.6948    3.2193    8.5271 C   0  0  0  0  0  0  0  0  0  0  0  0
   -3.1533    3.2354    9.7706 C   0  0  0  0  0  0  0  0  0  0  0  0
   -2.5655    2.0201    9.9700 N   0  0  0  0  0  0  0  0  0  0  0  0
   -2.7537    1.2684    8.8764 C   0  0  0  0  0  0  0  0  0  0  0  0
   -2.2881   -0.1257    8.7302 C   0  0  0  0  0  0  0  0  0  0  0  0
   -1.8947    1.6056   11.1864 C   0  0  0  0  0  0  0  0  0  0  0  0
   -2.7683    0.6982   12.0119 C   0  0  0  0  0  0  0  0  0  0  0  0
   -2.3624   -0.4517   12.5146 C   0  0  0  0  0  0  0  0  0  0  0  0
    0.5698    0.8721   -0.2699 H   0  0  0  0  0  0  0  0  0  0  0  0
    0.8463   -0.6237   -1.1534 H   0  0  0  0  0  0  0  0  0  0  0  0
    2.1615    0.1100   -0.2375 H   0  0  0  0  0  0  0  0  0  0  0  0
   -0.3923   -1.0479    0.9778 H   0  0  0  0  0  0  0  0  0  0  0  0
    1.1514   -1.8857    0.9087 H   0  0  0  0  0  0  0  0  0  0  0  0
    0.8813   -0.9493    3.1152 H   0  0  0  0  0  0  0  0  0  0  0  0
    2.2173   -0.1616    2.2876 H   0  0  0  0  0  0  0  0  0  0  0  0
    0.9383    1.4731    3.5351 H   0  0  0  0  0  0  0  0  0  0  0  0
    0.8623    1.8101    1.8164 H   0  0  0  0  0  0  0  0  0  0  0  0
   -1.3076    2.1898    2.8145 H   0  0  0  0  0  0  0  0  0  0  0  0
   -1.3929    0.8738    1.6606 H   0  0  0  0  0  0  0  0  0  0  0  0
   -2.7227    0.3320    3.6048 H   0  0  0  0  0  0  0  0  0  0  0  0
   -1.3895   -0.7935    3.4462 H   0  0  0  0  0  0  0  0  0  0  0  0
   -1.7129   -0.2169    5.7704 H   0  0  0  0  0  0  0  0  0  0  0  0
   -0.1330    0.3057    5.2150 H   0  0  0  0  0  0  0  0  0  0  0  0
   -1.0565    2.0267    6.6447 H   0  0  0  0  0  0  0  0  0  0  0  0
   -0.8893    2.6207    5.0039 H   0  0  0  0  0  0  0  0  0  0  0  0
   -2.9689    3.4424    5.8056 H   0  0  0  0  0  0  0  0  0  0  0  0
   -3.3364    2.1967    4.6203 H   0  0  0  0  0  0  0  0  0  0  0  0
   -4.8447    1.9225    6.4762 H   0  0  0  0  0  0  0  0  0  0  0  0
   -3.7104    0.5606    6.4986 H   0  0  0  0  0  0  0  0  0  0  0  0
   -4.2400    3.9759    8.0021 H   0  0  0  0  0  0  0  0  0  0  0  0
   -3.1420    4.0088   10.5104 H   0  0  0  0  0  0  0  0  0  0  0  0
   -2.9358   -0.6834    8.0594 H   0  0  0  0  0  0  0  0  0  0  0  0
   -1.2752   -0.1575    8.3262 H   0  0  0  0  0  0  0  0  0  0  0  0
   -2.2877   -0.6219    9.6982 H   0  0  0  0  0  0  0  0  0  0  0  0
   -0.9550    1.1091   10.9336 H   0  0  0  0  0  0  0  0  0  0  0  0
   -1.6668    2.5101   11.7572 H   0  0  0  0  0  0  0  0  0  0  0  0
   -3.7681    1.0670   12.1936 H   0  0  0  0  0  0  0  0  0  0  0  0
   -3.0064   -1.0568   13.1272 H   0  0  0  0  0  0  0  0  0  0  0  0
   -1.3638   -0.8261   12.3572 H   0  0  0  0  0  0  0  0  0  0  0  0
  1  2  1  0  0  0  0
  2  3  1  0  0  0  0
  3  4  1  0  0  0  0
  4  5  1  0  0  0  0
  5  6  1  0  0  0  0
  6  7  1  0  0  0  0
  7  8  1  0  0  0  0
  8  9  1  0  0  0  0
  9 10  1  0  0  0  0
 10 11  1  0  0  0  0
 11 12  4  0  0  0  0
 12 13  2  0  0  0  0
 13 14  4  0  0  0  0
 11 15  4  0  0  0  0
 14 15  4  0  0  0  0
 15 16  1  0  0  0  0
 14 17  1  0  0  0  0
 17 18  1  0  0  0  0
 18 19  2  0  0  0  0
  1 20  1  0  0  0  0
  1 21  1  0  0  0  0
  1 22  1  0  0  0  0
  2 23  1  0  0  0  0
  2 24  1  0  0  0  0
  3 25  1  0  0  0  0
  3 26  1  0  0  0  0
  4 27  1  0  0  0  0
  4 28  1  0  0  0  0
  5 29  1  0  0  0  0
  5 30  1  0  0  0  0
  6 31  1  0  0  0  0
  6 32  1  0  0  0  0
  7 33  1  0  0  0  0
  7 34  1  0  0  0  0
  8 35  1  0  0  0  0
  8 36  1  0  0  0  0
  9 37  1  0  0  0  0
  9 38  1  0  0  0  0
 10 39  1  0  0  0  0
 10 40  1  0  0  0  0
 12 41  1  0  0  0  0
 13 42  1  0  0  0  0
 16 43  1  0  0  0  0
 16 44  1  0  0  0  0
 16 45  1  0  0  0  0
 17 46  1  0  0  0  0
 17 47  1  0  0  0  0
 18 48  1  0  0  0  0
 19 49  1  0  0  0  0
 19 50  1  0  0  0  0
M  CHG  1   1   1
M  END
