 xtb: 6.7.1 (edcfbbe)
          12202406513D

 34 35  0     0  0            999 V2000
   -1.1596   -1.2362    1.2493 C   0  0  0  0  0  0  0  0  0  0  0  0
   -0.8315   -0.8444    2.6948 C   0  0  0  0  0  0  0  0  0  0  0  0
    0.0192    0.3841    2.7109 C   0  0  0  0  0  0  0  0  0  0  0  0
    1.4055    0.2894    2.5988 C   0  0  0  0  0  0  0  0  0  0  0  0
    2.1868    1.4212    2.5686 C   0  0  0  0  0  0  0  0  0  0  0  0
    1.6042    2.6959    2.6434 C   0  0  0  0  0  0  0  0  0  0  0  0
    0.2112    2.7928    2.7569 C   0  0  0  0  0  0  0  0  0  0  0  0
   -0.5592    1.6512    2.7894 C   0  0  0  0  0  0  0  0  0  0  0  0
    2.4970    3.8396    2.6097 C   0  0  0  0  0  0  0  0  0  0  0  0
    3.7071    3.7782    2.6014 O   0  0  0  0  0  0  0  0  0  0  0  0
    1.8430    5.2579    2.5987 C   0  0  0  0  0  0  0  0  0  0  0  0
    2.8684    6.2057    2.2828 N   0  0  0  0  0  0  0  0  0  0  0  0
    2.9803    6.9395    1.1385 C   0  0  0  0  0  0  0  0  0  0  0  0
    4.2172    7.5048    1.1402 C   0  0  0  0  0  0  0  0  0  0  0  0
    4.8496    7.0966    2.2768 N   0  0  0  0  0  0  0  0  0  0  0  0
    4.0203    6.3031    2.9479 C   0  0  0  0  0  0  0  0  0  0  0  0
    6.1915    7.4477    2.6545 C   0  0  0  0  0  0  0  0  0  0  0  0
   -1.7034   -0.4372    0.7511 H   0  0  0  0  0  0  0  0  0  0  0  0
   -1.7735   -2.1322    1.2386 H   0  0  0  0  0  0  0  0  0  0  0  0
   -0.2478   -1.4337    0.6909 H   0  0  0  0  0  0  0  0  0  0  0  0
   -1.7612   -0.6639    3.2364 H   0  0  0  0  0  0  0  0  0  0  0  0
   -0.3027   -1.6685    3.1760 H   0  0  0  0  0  0  0  0  0  0  0  0
    1.8688   -0.6840    2.5403 H   0  0  0  0  0  0  0  0  0  0  0  0
    3.2609    1.3518    2.4856 H   0  0  0  0  0  0  0  0  0  0  0  0
   -0.2756    3.7527    2.8339 H   0  0  0  0  0  0  0  0  0  0  0  0
   -1.6318    1.7362    2.8806 H   0  0  0  0  0  0  0  0  0  0  0  0
    1.0509    5.3187    1.8533 H   0  0  0  0  0  0  0  0  0  0  0  0
    1.4298    5.4473    3.5933 H   0  0  0  0  0  0  0  0  0  0  0  0
    2.1899    7.0139    0.4200 H   0  0  0  0  0  0  0  0  0  0  0  0
    4.6800    8.1523    0.4239 H   0  0  0  0  0  0  0  0  0  0  0  0
    4.2361    5.8373    3.8891 H   0  0  0  0  0  0  0  0  0  0  0  0
    6.4192    7.0336    3.6339 H   0  0  0  0  0  0  0  0  0  0  0  0
    6.9007    7.0475    1.9283 H   0  0  0  0  0  0  0  0  0  0  0  0
    6.3011    8.5321    2.6870 H   0  0  0  0  0  0  0  0  0  0  0  0
  1  2  1  0  0  0  0
  2  3  1  0  0  0  0
  3  4  4  0  0  0  0
  4  5  4  0  0  0  0
  5  6  4  0  0  0  0
  6  7  4  0  0  0  0
  3  8  4  0  0  0  0
  7  8  4  0  0  0  0
  6  9  1  0  0  0  0
  9 10  2  0  0  0  0
  9 11  1  0  0  0  0
 11 12  1  0  0  0  0
 12 13  4  0  0  0  0
 13 14  2  0  0  0  0
 14 15  4  0  0  0  0
 12 16  4  0  0  0  0
 15 16  4  0  0  0  0
 15 17  1  0  0  0  0
  1 18  1  0  0  0  0
  1 19  1  0  0  0  0
  1 20  1  0  0  0  0
  2 21  1  0  0  0  0
  2 22  1  0  0  0  0
  4 23  1  0  0  0  0
  5 24  1  0  0  0  0
  7 25  1  0  0  0  0
  8 26  1  0  0  0  0
 11 27  1  0  0  0  0
 11 28  1  0  0  0  0
 13 29  1  0  0  0  0
 14 30  1  0  0  0  0
 16 31  1  0  0  0  0
 17 32  1  0  0  0  0
 17 33  1  0  0  0  0
 17 34  1  0  0  0  0
M  CHG  1   1   1
M  END
