 xtb: 6.7.1 (edcfbbe)
          12202406513D

 43 44  0     0  0            999 V2000
    0.3577    0.3925    0.8962 C   0  0  0  0  0  0  0  0  0  0  0  0
   -0.1168   -0.9798    0.6515 N   0  0  0  0  0  0  0  0  0  0  0  0
    0.0290   -1.7799    1.9111 C   0  0  0  0  0  0  0  0  0  0  0  0
    1.4059   -1.8617    2.3495 C   0  0  0  0  0  0  0  0  0  0  0  0
    2.5494   -1.9424    2.7200 C   0  0  0  0  0  0  0  0  0  0  0  0
    3.8854   -2.0345    3.1691 C   0  0  0  0  0  0  0  0  0  0  0  0
    4.3366   -1.1975    4.1911 C   0  0  0  0  0  0  0  0  0  0  0  0
    5.6423   -1.2976    4.6307 C   0  0  0  0  0  0  0  0  0  0  0  0
    6.5021   -2.2228    4.0586 C   0  0  0  0  0  0  0  0  0  0  0  0
    6.0562   -3.0537    3.0421 C   0  0  0  0  0  0  0  0  0  0  0  0
    4.7526   -2.9651    2.5940 C   0  0  0  0  0  0  0  0  0  0  0  0
   -1.5651   -0.9705    0.2499 C   0  0  0  0  0  0  0  0  0  0  0  0
   -1.8333   -0.1669   -0.9823 C   0  0  0  0  0  0  0  0  0  0  0  0
   -2.0974   -0.7259   -2.1663 C   0  0  0  0  0  0  0  0  0  0  0  0
   -2.3986   -0.0433   -3.4107 C   0  0  0  0  0  0  0  0  0  0  0  0
   -2.7337   -0.8148   -4.5274 C   0  0  0  0  0  0  0  0  0  0  0  0
   -3.0351   -0.2188   -5.7361 C   0  0  0  0  0  0  0  0  0  0  0  0
   -3.0021    1.1611   -5.8554 C   0  0  0  0  0  0  0  0  0  0  0  0
   -2.6674    1.9397   -4.7581 C   0  0  0  0  0  0  0  0  0  0  0  0
   -2.3687    1.3474   -3.5475 C   0  0  0  0  0  0  0  0  0  0  0  0
    0.6914   -1.5963   -0.4132 C   0  0  0  0  0  0  0  0  0  0  0  0
   -0.2868    0.8875    1.6210 H   0  0  0  0  0  0  0  0  0  0  0  0
    0.3555    0.9602   -0.0311 H   0  0  0  0  0  0  0  0  0  0  0  0
    1.3722    0.3591    1.2925 H   0  0  0  0  0  0  0  0  0  0  0  0
   -0.3595   -2.7863    1.7272 H   0  0  0  0  0  0  0  0  0  0  0  0
   -0.5776   -1.3089    2.6908 H   0  0  0  0  0  0  0  0  0  0  0  0
    3.6595   -0.4822    4.6342 H   0  0  0  0  0  0  0  0  0  0  0  0
    5.9909   -0.6534    5.4231 H   0  0  0  0  0  0  0  0  0  0  0  0
    7.5206   -2.2977    4.4067 H   0  0  0  0  0  0  0  0  0  0  0  0
    6.7265   -3.7743    2.5995 H   0  0  0  0  0  0  0  0  0  0  0  0
    4.3968   -3.6122    1.8057 H   0  0  0  0  0  0  0  0  0  0  0  0
   -1.8671   -2.0082    0.0899 H   0  0  0  0  0  0  0  0  0  0  0  0
   -2.1341   -0.5663    1.0914 H   0  0  0  0  0  0  0  0  0  0  0  0
   -1.8523    0.9045   -0.8588 H   0  0  0  0  0  0  0  0  0  0  0  0
   -2.1081   -1.8083   -2.2370 H   0  0  0  0  0  0  0  0  0  0  0  0
   -2.7626   -1.8915   -4.4398 H   0  0  0  0  0  0  0  0  0  0  0  0
   -3.2949   -0.8296   -6.5869 H   0  0  0  0  0  0  0  0  0  0  0  0
   -3.2362    1.6291   -6.7988 H   0  0  0  0  0  0  0  0  0  0  0  0
   -2.6406    3.0148   -4.8488 H   0  0  0  0  0  0  0  0  0  0  0  0
   -2.1129    1.9723   -2.7057 H   0  0  0  0  0  0  0  0  0  0  0  0
    0.5734   -1.0344   -1.3380 H   0  0  0  0  0  0  0  0  0  0  0  0
    1.7397   -1.6029   -0.1191 H   0  0  0  0  0  0  0  0  0  0  0  0
    0.3673   -2.6220   -0.5809 H   0  0  0  0  0  0  0  0  0  0  0  0
  1  2  1  0  0  0  0
  2  3  1  0  0  0  0
  3  4  1  0  0  0  0
  4  5  3  0  0  0  0
  5  6  1  0  0  0  0
  6  7  4  0  0  0  0
  7  8  4  0  0  0  0
  8  9  4  0  0  0  0
  9 10  4  0  0  0  0
  6 11  4  0  0  0  0
 10 11  4  0  0  0  0
  2 12  1  0  0  0  0
 12 13  1  0  0  0  0
 13 14  2  0  0  0  0
 14 15  1  0  0  0  0
 15 16  4  0  0  0  0
 16 17  4  0  0  0  0
 17 18  4  0  0  0  0
 18 19  4  0  0  0  0
 15 20  4  0  0  0  0
 19 20  4  0  0  0  0
  2 21  1  0  0  0  0
  1 22  1  0  0  0  0
  1 23  1  0  0  0  0
  1 24  1  0  0  0  0
  3 25  1  0  0  0  0
  3 26  1  0  0  0  0
  7 27  1  0  0  0  0
  8 28  1  0  0  0  0
  9 29  1  0  0  0  0
 10 30  1  0  0  0  0
 11 31  1  0  0  0  0
 12 32  1  0  0  0  0
 12 33  1  0  0  0  0
 13 34  1  0  0  0  0
 14 35  1  0  0  0  0
 16 36  1  0  0  0  0
 17 37  1  0  0  0  0
 18 38  1  0  0  0  0
 19 39  1  0  0  0  0
 20 40  1  0  0  0  0
 21 41  1  0  0  0  0
 21 42  1  0  0  0  0
 21 43  1  0  0  0  0
M  CHG  1   1   1
M  END
