 xtb: 6.7.1 (edcfbbe)
          12202406513D

 23 23  0     0  0            999 V2000
    0.6731   -0.0178    0.3035 C   0  0  0  0  0  0  0  0  0  0  0  0
    0.1996    1.3120    0.6340 N   0  0  0  0  0  0  0  0  0  0  0  0
   -0.3996    2.2151   -0.1378 C   0  0  0  0  0  0  0  0  0  0  0  0
   -0.7251    2.1244   -1.4293 N   0  0  0  0  0  0  0  0  0  0  0  0
   -0.4704    1.0767   -2.3883 C   0  0  0  0  0  0  0  0  0  0  0  0
   -1.2781    3.3859   -1.9090 C   0  0  0  0  0  0  0  0  0  0  0  0
   -1.3895    4.2409   -0.6418 C   0  0  0  0  0  0  0  0  0  0  0  0
   -0.7546    3.4061    0.3636 N   0  0  0  0  0  0  0  0  0  0  0  0
   -0.6198    3.8268    1.7354 C   0  0  0  0  0  0  0  0  0  0  0  0
    1.2300   -0.0156   -0.6297 H   0  0  0  0  0  0  0  0  0  0  0  0
   -0.1493   -0.7331    0.2416 H   0  0  0  0  0  0  0  0  0  0  0  0
    1.3438   -0.3409    1.0955 H   0  0  0  0  0  0  0  0  0  0  0  0
    0.2633    1.5592    1.6099 H   0  0  0  0  0  0  0  0  0  0  0  0
   -1.1484    1.2206   -3.2276 H   0  0  0  0  0  0  0  0  0  0  0  0
    0.5533    1.1190   -2.7675 H   0  0  0  0  0  0  0  0  0  0  0  0
   -0.6666    0.0967   -1.9631 H   0  0  0  0  0  0  0  0  0  0  0  0
   -2.2479    3.2097   -2.3802 H   0  0  0  0  0  0  0  0  0  0  0  0
   -0.6077    3.8289   -2.6518 H   0  0  0  0  0  0  0  0  0  0  0  0
   -2.4290    4.4426   -0.3657 H   0  0  0  0  0  0  0  0  0  0  0  0
   -0.8624    5.1939   -0.7320 H   0  0  0  0  0  0  0  0  0  0  0  0
    0.4285    3.8460    2.0415 H   0  0  0  0  0  0  0  0  0  0  0  0
   -1.0151    4.8353    1.8235 H   0  0  0  0  0  0  0  0  0  0  0  0
   -1.1878    3.1806    2.4094 H   0  0  0  0  0  0  0  0  0  0  0  0
  1  2  1  0  0  0  0
  2  3  4  0  0  0  0
  3  4  4  0  0  0  0
  4  5  1  0  0  0  0
  4  6  1  0  0  0  0
  6  7  1  0  0  0  0
  3  8  4  0  0  0  0
  7  8  1  0  0  0  0
  8  9  1  0  0  0  0
  1 10  1  0  0  0  0
  1 11  1  0  0  0  0
  1 12  1  0  0  0  0
  2 13  1  0  0  0  0
  5 14  1  0  0  0  0
  5 15  1  0  0  0  0
  5 16  1  0  0  0  0
  6 17  1  0  0  0  0
  6 18  1  0  0  0  0
  7 19  1  0  0  0  0
  7 20  1  0  0  0  0
  9 21  1  0  0  0  0
  9 22  1  0  0  0  0
  9 23  1  0  0  0  0
M  CHG  1   1   1
M  END
