 xtb: 6.7.1 (edcfbbe)
          12202406513D

 45 47  0     0  0            999 V2000
   -1.4049    0.6662    1.7990 C   0  0  0  0  0  0  0  0  0  0  0  0
   -0.3246   -0.2102    2.0355 O   0  0  0  0  0  0  0  0  0  0  0  0
    0.9311    0.3986    1.8824 C   0  0  0  0  0  0  0  0  0  0  0  0
    2.0057   -0.6257    2.2647 C   0  0  0  0  0  0  0  0  0  0  0  0
    1.9577   -1.7729    1.3924 N   0  0  0  0  0  0  0  0  0  0  0  0
    2.6689   -1.9464    0.2830 C   0  0  0  0  0  0  0  0  0  0  0  0
    2.3333   -3.0741   -0.3369 N   0  0  0  0  0  0  0  0  0  0  0  0
    1.3438   -3.6831    0.4078 C   0  0  0  0  0  0  0  0  0  0  0  0
    1.0989   -2.8451    1.5116 C   0  0  0  0  0  0  0  0  0  0  0  0
    0.1511   -3.1830    2.4714 C   0  0  0  0  0  0  0  0  0  0  0  0
   -0.5216   -4.3684    2.2903 C   0  0  0  0  0  0  0  0  0  0  0  0
   -0.2905   -5.2157    1.1904 C   0  0  0  0  0  0  0  0  0  0  0  0
    0.6413   -4.8685    0.2301 C   0  0  0  0  0  0  0  0  0  0  0  0
   -1.0645   -6.4866    1.0782 C   0  0  0  0  0  0  0  0  0  0  0  0
    2.9951   -3.6286   -1.4933 C   0  0  0  0  0  0  0  0  0  0  0  0
    4.1885   -4.5065   -1.0715 C   0  0  0  0  0  0  0  0  0  0  0  0
    3.7284   -5.6539   -0.2140 C   0  0  0  0  0  0  0  0  0  0  0  0
    3.2631   -6.8242   -0.8010 C   0  0  0  0  0  0  0  0  0  0  0  0
    2.7713   -7.8540   -0.0189 C   0  0  0  0  0  0  0  0  0  0  0  0
    2.7337   -7.7218    1.3591 C   0  0  0  0  0  0  0  0  0  0  0  0
    3.2058   -6.5642    1.9529 C   0  0  0  0  0  0  0  0  0  0  0  0
    3.7014   -5.5367    1.1698 C   0  0  0  0  0  0  0  0  0  0  0  0
   -2.3091    0.0825    1.9484 H   0  0  0  0  0  0  0  0  0  0  0  0
   -1.3824    1.0538    0.7756 H   0  0  0  0  0  0  0  0  0  0  0  0
   -1.3896    1.5070    2.4993 H   0  0  0  0  0  0  0  0  0  0  0  0
    1.0746    0.7324    0.8416 H   0  0  0  0  0  0  0  0  0  0  0  0
    1.0258    1.2751    2.5397 H   0  0  0  0  0  0  0  0  0  0  0  0
    2.9925   -0.1647    2.2018 H   0  0  0  0  0  0  0  0  0  0  0  0
    1.8233   -0.9655    3.2857 H   0  0  0  0  0  0  0  0  0  0  0  0
    3.4222   -1.2657   -0.0680 H   0  0  0  0  0  0  0  0  0  0  0  0
   -0.0601   -2.5357    3.3049 H   0  0  0  0  0  0  0  0  0  0  0  0
   -1.2620   -4.6680    3.0159 H   0  0  0  0  0  0  0  0  0  0  0  0
    0.8258   -5.5113   -0.6145 H   0  0  0  0  0  0  0  0  0  0  0  0
   -0.7398   -7.0721    0.2235 H   0  0  0  0  0  0  0  0  0  0  0  0
   -0.9389   -7.0829    1.9797 H   0  0  0  0  0  0  0  0  0  0  0  0
   -2.1270   -6.2723    0.9733 H   0  0  0  0  0  0  0  0  0  0  0  0
    2.2698   -4.2279   -2.0459 H   0  0  0  0  0  0  0  0  0  0  0  0
    3.3379   -2.8090   -2.1285 H   0  0  0  0  0  0  0  0  0  0  0  0
    4.6655   -4.8791   -1.9781 H   0  0  0  0  0  0  0  0  0  0  0  0
    4.9118   -3.8947   -0.5291 H   0  0  0  0  0  0  0  0  0  0  0  0
    3.2943   -6.9316   -1.8759 H   0  0  0  0  0  0  0  0  0  0  0  0
    2.4200   -8.7618   -0.4852 H   0  0  0  0  0  0  0  0  0  0  0  0
    2.3497   -8.5247    1.9688 H   0  0  0  0  0  0  0  0  0  0  0  0
    3.1932   -6.4620    3.0272 H   0  0  0  0  0  0  0  0  0  0  0  0
    4.0837   -4.6409    1.6412 H   0  0  0  0  0  0  0  0  0  0  0  0
  1  2  1  0  0  0  0
  2  3  1  0  0  0  0
  3  4  1  0  0  0  0
  4  5  1  0  0  0  0
  5  6  4  0  0  0  0
  6  7  4  0  0  0  0
  7  8  1  0  0  0  0
  5  9  1  0  0  0  0
  8  9  4  0  0  0  0
  9 10  4  0  0  0  0
 10 11  2  0  0  0  0
 11 12  4  0  0  0  0
  8 13  4  0  0  0  0
 12 13  4  0  0  0  0
 12 14  1  0  0  0  0
  7 15  1  0  0  0  0
 15 16  1  0  0  0  0
 16 17  1  0  0  0  0
 17 18  4  0  0  0  0
 18 19  4  0  0  0  0
 19 20  4  0  0  0  0
 20 21  4  0  0  0  0
 17 22  4  0  0  0  0
 21 22  4  0  0  0  0
  1 23  1  0  0  0  0
  1 24  1  0  0  0  0
  1 25  1  0  0  0  0
  3 26  1  0  0  0  0
  3 27  1  0  0  0  0
  4 28  1  0  0  0  0
  4 29  1  0  0  0  0
  6 30  1  0  0  0  0
 10 31  1  0  0  0  0
 11 32  1  0  0  0  0
 13 33  1  0  0  0  0
 14 34  1  0  0  0  0
 14 35  1  0  0  0  0
 14 36  1  0  0  0  0
 15 37  1  0  0  0  0
 15 38  1  0  0  0  0
 16 39  1  0  0  0  0
 16 40  1  0  0  0  0
 18 41  1  0  0  0  0
 19 42  1  0  0  0  0
 20 43  1  0  0  0  0
 21 44  1  0  0  0  0
 22 45  1  0  0  0  0
M  CHG  1   1   1
M  END
