 xtb: 6.7.1 (edcfbbe)
          12202406513D

 55 55  0     0  0            999 V2000
    0.0156    2.7494    1.8722 C   0  0  0  0  0  0  0  0  0  0  0  0
   -1.4900    2.9402    1.7730 C   0  0  0  0  0  0  0  0  0  0  0  0
   -1.9896    3.3272    0.4175 N   0  0  0  0  0  0  0  0  0  0  0  0
   -1.4787    2.3362   -0.5893 C   0  0  0  0  0  0  0  0  0  0  0  0
   -1.7964    1.0673   -0.1547 O   0  0  0  0  0  0  0  0  0  0  0  0
   -1.8279    0.0442   -1.1838 C   0  0  0  0  0  0  0  0  0  0  0  0
   -1.3078   -1.2504   -0.5562 C   0  0  0  0  0  0  0  0  0  0  0  0
   -2.3031   -1.9757    0.3521 C   0  0  0  0  0  0  0  0  0  0  0  0
   -2.4944   -1.2643    1.6892 C   0  0  0  0  0  0  0  0  0  0  0  0
   -3.6205   -2.1729   -0.3981 C   0  0  0  0  0  0  0  0  0  0  0  0
   -4.1906   -0.8538   -0.9054 C   0  0  0  0  0  0  0  0  0  0  0  0
   -3.2378   -0.0362   -1.7932 C   0  0  0  0  0  0  0  0  0  0  0  0
   -3.2610   -0.4356   -3.2895 C   0  0  0  0  0  0  0  0  0  0  0  0
   -2.8846    0.7638   -4.1642 C   0  0  0  0  0  0  0  0  0  0  0  0
   -2.3934   -1.6276   -3.6829 C   0  0  0  0  0  0  0  0  0  0  0  0
   -3.4840    3.2063    0.3830 C   0  0  0  0  0  0  0  0  0  0  0  0
   -4.2801    4.0844    1.3312 C   0  0  0  0  0  0  0  0  0  0  0  0
   -1.5311    4.6888   -0.0096 C   0  0  0  0  0  0  0  0  0  0  0  0
   -1.4150    5.7540    1.0726 C   0  0  0  0  0  0  0  0  0  0  0  0
    0.3347    1.8449    1.3632 H   0  0  0  0  0  0  0  0  0  0  0  0
    0.2687    2.6361    2.9235 H   0  0  0  0  0  0  0  0  0  0  0  0
    0.5756    3.5960    1.4856 H   0  0  0  0  0  0  0  0  0  0  0  0
   -1.9729    1.9964    2.0292 H   0  0  0  0  0  0  0  0  0  0  0  0
   -1.8152    3.7071    2.4728 H   0  0  0  0  0  0  0  0  0  0  0  0
   -1.9380    2.5717   -1.5619 H   0  0  0  0  0  0  0  0  0  0  0  0
   -0.3893    2.4685   -0.6785 H   0  0  0  0  0  0  0  0  0  0  0  0
   -1.1135    0.3496   -1.9593 H   0  0  0  0  0  0  0  0  0  0  0  0
   -0.4045   -1.0096    0.0082 H   0  0  0  0  0  0  0  0  0  0  0  0
   -1.0247   -1.9207   -1.3660 H   0  0  0  0  0  0  0  0  0  0  0  0
   -1.8837   -2.9643    0.5672 H   0  0  0  0  0  0  0  0  0  0  0  0
   -2.8711   -0.2567    1.5459 H   0  0  0  0  0  0  0  0  0  0  0  0
   -3.1975   -1.8151    2.3090 H   0  0  0  0  0  0  0  0  0  0  0  0
   -1.5472   -1.2037    2.2201 H   0  0  0  0  0  0  0  0  0  0  0  0
   -3.4591   -2.8547   -1.2324 H   0  0  0  0  0  0  0  0  0  0  0  0
   -4.3516   -2.6391    0.2645 H   0  0  0  0  0  0  0  0  0  0  0  0
   -4.4636   -0.2451   -0.0403 H   0  0  0  0  0  0  0  0  0  0  0  0
   -5.1095   -1.0470   -1.4612 H   0  0  0  0  0  0  0  0  0  0  0  0
   -3.6347    0.9894   -1.7813 H   0  0  0  0  0  0  0  0  0  0  0  0
   -4.3005   -0.6919   -3.5195 H   0  0  0  0  0  0  0  0  0  0  0  0
   -1.8600    1.0826   -3.9780 H   0  0  0  0  0  0  0  0  0  0  0  0
   -2.9611    0.4953   -5.2141 H   0  0  0  0  0  0  0  0  0  0  0  0
   -3.5513    1.6061   -3.9862 H   0  0  0  0  0  0  0  0  0  0  0  0
   -2.6316   -2.5091   -3.0979 H   0  0  0  0  0  0  0  0  0  0  0  0
   -2.5729   -1.8668   -4.7285 H   0  0  0  0  0  0  0  0  0  0  0  0
   -1.3355   -1.4023   -3.5728 H   0  0  0  0  0  0  0  0  0  0  0  0
   -3.7986    3.4243   -0.6407 H   0  0  0  0  0  0  0  0  0  0  0  0
   -3.7027    2.1559    0.5873 H   0  0  0  0  0  0  0  0  0  0  0  0
   -4.2156    5.1357    1.0683 H   0  0  0  0  0  0  0  0  0  0  0  0
   -5.3245    3.7943    1.2401 H   0  0  0  0  0  0  0  0  0  0  0  0
   -3.9961    3.9477    2.3698 H   0  0  0  0  0  0  0  0  0  0  0  0
   -0.5491    4.5767   -0.4738 H   0  0  0  0  0  0  0  0  0  0  0  0
   -2.2235    5.0301   -0.7818 H   0  0  0  0  0  0  0  0  0  0  0  0
   -0.6168    5.5402    1.7764 H   0  0  0  0  0  0  0  0  0  0  0  0
   -1.1677    6.6901    0.5769 H   0  0  0  0  0  0  0  0  0  0  0  0
   -2.3365    5.9085    1.6220 H   0  0  0  0  0  0  0  0  0  0  0  0
  1  2  1  0  0  0  0
  2  3  1  0  0  0  0
  3  4  1  0  0  0  0
  4  5  1  0  0  0  0
  5  6  1  0  0  0  0
  6  7  1  0  0  0  0
  7  8  1  0  0  0  0
  8  9  1  0  0  0  0
  8 10  1  0  0  0  0
 10 11  1  0  0  0  0
  6 12  1  0  0  0  0
 11 12  1  0  0  0  0
 12 13  1  0  0  0  0
 13 14  1  0  0  0  0
 13 15  1  0  0  0  0
  3 16  1  0  0  0  0
 16 17  1  0  0  0  0
  3 18  1  0  0  0  0
 18 19  1  0  0  0  0
  1 20  1  0  0  0  0
  1 21  1  0  0  0  0
  1 22  1  0  0  0  0
  2 23  1  0  0  0  0
  2 24  1  0  0  0  0
  4 25  1  0  0  0  0
  4 26  1  0  0  0  0
  6 27  1  0  0  0  0
  7 28  1  0  0  0  0
  7 29  1  0  0  0  0
  8 30  1  0  0  0  0
  9 31  1  0  0  0  0
  9 32  1  0  0  0  0
  9 33  1  0  0  0  0
 10 34  1  0  0  0  0
 10 35  1  0  0  0  0
 11 36  1  0  0  0  0
 11 37  1  0  0  0  0
 12 38  1  0  0  0  0
 13 39  1  0  0  0  0
 14 40  1  0  0  0  0
 14 41  1  0  0  0  0
 14 42  1  0  0  0  0
 15 43  1  0  0  0  0
 15 44  1  0  0  0  0
 15 45  1  0  0  0  0
 16 46  1  0  0  0  0
 16 47  1  0  0  0  0
 17 48  1  0  0  0  0
 17 49  1  0  0  0  0
 17 50  1  0  0  0  0
 18 51  1  0  0  0  0
 18 52  1  0  0  0  0
 19 53  1  0  0  0  0
 19 54  1  0  0  0  0
 19 55  1  0  0  0  0
M  CHG  1   1   1
M  END
