33

C          0.80199        0.08083       -0.26907
C          0.52634        1.56407       -0.44049
O          1.20972        2.06237       -1.60400
C          2.51599        2.40389       -1.41733
O          3.10131        2.39396       -0.34232
C          3.17305        2.84147       -2.72076
N          2.66570        2.13263       -3.90935
C          1.95204        2.64802       -4.89926
N          1.53673        3.91076       -4.98832
N          1.71846        1.72056       -5.81978
C          2.22491        0.50231       -5.37102
C          2.84139        0.76879       -4.14459
C          3.46863       -0.22460       -3.39541
C          3.43957       -1.51598       -3.93757
C          2.81921       -1.78581       -5.17171
C          2.19803       -0.77727       -5.92131
C          1.03837        1.93981       -7.08555
H          0.51610       -0.47006       -1.17118
H          0.24588       -0.32192        0.58216
H          1.86851       -0.10637       -0.10802
H         -0.54418        1.72338       -0.60480
H          0.80416        2.13096        0.45543
H          3.03447        3.91929       -2.83017
H          4.24808        2.64003       -2.65613
H          1.71229        4.58703       -4.26271
H          0.99671        4.21727       -5.78357
H          3.94666       -0.01917       -2.44559
H          3.90883       -2.33435       -3.39031
H          2.82283       -2.80748       -5.55330
H          1.72156       -0.98804       -6.86987
H          0.00626        2.24126       -6.88742
H          1.55565        2.73318       -7.63298
H          1.03528        1.03822       -7.70108
