 xtb: 6.7.1 (edcfbbe)
          12202406523D

 29 30  0     0  0            999 V2000
    1.0459   -0.3588   -0.3579 C   0  0  0  0  0  0  0  0  0  0  0  0
    0.2635    0.1846   -1.2704 C   0  0  0  0  0  0  0  0  0  0  0  0
   -1.2208    0.3444   -1.1098 C   0  0  0  0  0  0  0  0  0  0  0  0
   -1.6371    1.7149   -1.3380 N   0  0  0  0  0  0  0  0  0  0  0  0
   -0.9229    2.8016   -1.0655 C   0  0  0  0  0  0  0  0  0  0  0  0
   -1.5788    3.9090   -1.3933 N   0  0  0  0  0  0  0  0  0  0  0  0
   -2.8051    3.5345   -1.9024 C   0  0  0  0  0  0  0  0  0  0  0  0
   -2.8426    2.1265   -1.8677 C   0  0  0  0  0  0  0  0  0  0  0  0
   -3.9539    1.4232   -2.3189 C   0  0  0  0  0  0  0  0  0  0  0  0
   -5.0089    2.1670   -2.8041 C   0  0  0  0  0  0  0  0  0  0  0  0
   -4.9697    3.5646   -2.8429 C   0  0  0  0  0  0  0  0  0  0  0  0
   -3.8748    4.2733   -2.3952 C   0  0  0  0  0  0  0  0  0  0  0  0
   -1.1263    5.2678   -1.1890 C   0  0  0  0  0  0  0  0  0  0  0  0
   -1.7128    5.8517    0.0926 C   0  0  0  0  0  0  0  0  0  0  0  0
    0.6645   -0.7139    0.5850 H   0  0  0  0  0  0  0  0  0  0  0  0
    2.1007   -0.4862   -0.5238 H   0  0  0  0  0  0  0  0  0  0  0  0
    0.6601    0.5237   -2.2178 H   0  0  0  0  0  0  0  0  0  0  0  0
   -1.7403   -0.2821   -1.8411 H   0  0  0  0  0  0  0  0  0  0  0  0
   -1.5319    0.0341   -0.1066 H   0  0  0  0  0  0  0  0  0  0  0  0
    0.0637    2.7799   -0.6410 H   0  0  0  0  0  0  0  0  0  0  0  0
   -3.9959    0.3469   -2.2905 H   0  0  0  0  0  0  0  0  0  0  0  0
   -5.8894    1.6598   -3.1644 H   0  0  0  0  0  0  0  0  0  0  0  0
   -5.8206    4.0994   -3.2331 H   0  0  0  0  0  0  0  0  0  0  0  0
   -3.8533    5.3501   -2.4275 H   0  0  0  0  0  0  0  0  0  0  0  0
   -0.0359    5.2625   -1.1390 H   0  0  0  0  0  0  0  0  0  0  0  0
   -1.4348    5.8612   -2.0525 H   0  0  0  0  0  0  0  0  0  0  0  0
   -1.3866    5.2842    0.9606 H   0  0  0  0  0  0  0  0  0  0  0  0
   -1.3768    6.8775    0.2078 H   0  0  0  0  0  0  0  0  0  0  0  0
   -2.7993    5.8466    0.0606 H   0  0  0  0  0  0  0  0  0  0  0  0
  1  2  2  0  0  0  0
  2  3  1  0  0  0  0
  3  4  1  0  0  0  0
  4  5  4  0  0  0  0
  5  6  4  0  0  0  0
  6  7  1  0  0  0  0
  4  8  1  0  0  0  0
  7  8  4  0  0  0  0
  8  9  4  0  0  0  0
  9 10  4  0  0  0  0
 10 11  4  0  0  0  0
  7 12  4  0  0  0  0
 11 12  4  0  0  0  0
  6 13  1  0  0  0  0
 13 14  1  0  0  0  0
  1 15  1  0  0  0  0
  1 16  1  0  0  0  0
  2 17  1  0  0  0  0
  3 18  1  0  0  0  0
  3 19  1  0  0  0  0
  5 20  1  0  0  0  0
  9 21  1  0  0  0  0
 10 22  1  0  0  0  0
 11 23  1  0  0  0  0
 12 24  1  0  0  0  0
 13 25  1  0  0  0  0
 13 26  1  0  0  0  0
 14 27  1  0  0  0  0
 14 28  1  0  0  0  0
 14 29  1  0  0  0  0
M  CHG  1   1   1
M  END
