36

C         -0.30521       -0.82289       -1.70955
O          0.51224        0.14167       -1.04358
C          0.73963        1.32388       -1.70154
C         -0.25381        1.99737       -2.45222
O         -1.50813        1.44459       -2.47947
C         -2.59119        2.27567       -2.88457
C          0.06022        3.19305       -3.10880
C          1.32728        3.75387       -2.98936
C          2.28524        3.13375       -2.19491
C          2.00353        1.92583       -1.52977
C          3.08350        1.42980       -0.61188
O          4.04910        2.16597       -0.38224
C          2.94900        0.13623        0.17152
N          2.08732        0.30650        1.35570
C          1.26979       -0.66529        1.90668
C          0.54587       -0.05740        2.89236
N          0.95759        1.26368        2.93270
C          1.93687        1.45492        2.03499
C          0.41207        2.31513        3.77937
H          0.02433       -1.81326       -1.37944
H         -0.20212       -0.78808       -2.79923
H         -1.34759       -0.71128       -1.39689
H         -3.51868        1.72777       -2.69247
H         -2.62292        3.20009       -2.29810
H         -2.54465        2.48527       -3.95748
H         -0.66574        3.71746       -3.72368
H          1.56181        4.68704       -3.49841
H          3.25840        3.61499       -2.09203
H          2.61525       -0.68882       -0.46164
H          3.94398       -0.14486        0.53873
H          1.28663       -1.66109        1.49887
H         -0.22515       -0.39239        3.56447
H          2.47019        2.38504        1.86619
H          1.22575        2.78059        4.34088
H         -0.07282        3.06047        3.14240
H         -0.32215        1.89976        4.47442
