 xtb: 6.7.1 (edcfbbe)
          12202406523D

101100  0     0  0            999 V2000
    3.8350   -0.4732   -2.9024 C   0  0  0  0  0  0  0  0  0  0  0  0
    2.8747    0.3265   -3.7744 C   0  0  0  0  0  0  0  0  0  0  0  0
    2.2242   -0.5085   -4.8786 C   0  0  0  0  0  0  0  0  0  0  0  0
    1.3612   -1.6715   -4.3837 C   0  0  0  0  0  0  0  0  0  0  0  0
    0.2084   -1.2742   -3.4596 C   0  0  0  0  0  0  0  0  0  0  0  0
   -0.7689   -0.2516   -4.0441 C   0  0  0  0  0  0  0  0  0  0  0  0
   -1.4550   -0.6798   -5.3427 C   0  0  0  0  0  0  0  0  0  0  0  0
   -2.3665   -1.9101   -5.2032 C   0  0  0  0  0  0  0  0  0  0  0  0
   -4.1473   -1.5076   -5.0800 P   0  0  0  0  0  0  0  0  0  0  0  0
   -4.6089   -0.4768   -6.5252 C   0  0  0  0  0  0  0  0  0  0  0  0
   -3.9485   -0.8310   -7.8592 C   0  0  0  0  0  0  0  0  0  0  0  0
   -4.3356   -2.1970   -8.4244 C   0  0  0  0  0  0  0  0  0  0  0  0
   -5.8024   -2.3313   -8.8418 C   0  0  0  0  0  0  0  0  0  0  0  0
   -6.2602   -1.3391   -9.9141 C   0  0  0  0  0  0  0  0  0  0  0  0
   -5.4507   -1.3666  -11.2123 C   0  0  0  0  0  0  0  0  0  0  0  0
   -5.4258   -2.7185  -11.9274 C   0  0  0  0  0  0  0  0  0  0  0  0
   -6.8055   -3.1879  -12.3728 C   0  0  0  0  0  0  0  0  0  0  0  0
   -5.2100   -3.0108   -5.0783 C   0  0  0  0  0  0  0  0  0  0  0  0
   -4.4933   -4.3455   -4.8635 C   0  0  0  0  0  0  0  0  0  0  0  0
   -4.0558   -4.5736   -3.4166 C   0  0  0  0  0  0  0  0  0  0  0  0
   -5.1941   -4.9835   -2.4785 C   0  0  0  0  0  0  0  0  0  0  0  0
   -5.7565   -6.3853   -2.7269 C   0  0  0  0  0  0  0  0  0  0  0  0
   -4.7490   -7.5282   -2.5836 C   0  0  0  0  0  0  0  0  0  0  0  0
   -4.0433   -7.6034   -1.2287 C   0  0  0  0  0  0  0  0  0  0  0  0
   -5.0006   -7.8114   -0.0614 C   0  0  0  0  0  0  0  0  0  0  0  0
   -4.6086   -0.4229   -3.6714 C   0  0  0  0  0  0  0  0  0  0  0  0
   -4.7757   -1.0673   -2.2933 C   0  0  0  0  0  0  0  0  0  0  0  0
   -3.4641   -1.2561   -1.5296 C   0  0  0  0  0  0  0  0  0  0  0  0
   -2.9356    0.0298   -0.8888 C   0  0  0  0  0  0  0  0  0  0  0  0
   -3.7271    0.5026    0.3330 C   0  0  0  0  0  0  0  0  0  0  0  0
   -3.7526   -0.4733    1.5118 C   0  0  0  0  0  0  0  0  0  0  0  0
   -2.3784   -0.8932    2.0361 C   0  0  0  0  0  0  0  0  0  0  0  0
   -1.5450    0.2768    2.5450 C   0  0  0  0  0  0  0  0  0  0  0  0
    3.3093   -1.2273   -2.3218 H   0  0  0  0  0  0  0  0  0  0  0  0
    4.3485    0.1874   -2.2084 H   0  0  0  0  0  0  0  0  0  0  0  0
    4.5826   -0.9696   -3.5166 H   0  0  0  0  0  0  0  0  0  0  0  0
    2.1070    0.7835   -3.1468 H   0  0  0  0  0  0  0  0  0  0  0  0
    3.4273    1.1393   -4.2508 H   0  0  0  0  0  0  0  0  0  0  0  0
    1.6253    0.1516   -5.5107 H   0  0  0  0  0  0  0  0  0  0  0  0
    3.0142   -0.9245   -5.5077 H   0  0  0  0  0  0  0  0  0  0  0  0
    0.9682   -2.2052   -5.2529 H   0  0  0  0  0  0  0  0  0  0  0  0
    1.9945   -2.3763   -3.8436 H   0  0  0  0  0  0  0  0  0  0  0  0
   -0.3247   -2.1846   -3.1705 H   0  0  0  0  0  0  0  0  0  0  0  0
    0.6190   -0.8504   -2.5426 H   0  0  0  0  0  0  0  0  0  0  0  0
   -1.5224   -0.0230   -3.2898 H   0  0  0  0  0  0  0  0  0  0  0  0
   -0.2262    0.6723   -4.2464 H   0  0  0  0  0  0  0  0  0  0  0  0
   -2.0244    0.1718   -5.7239 H   0  0  0  0  0  0  0  0  0  0  0  0
   -0.6839   -0.9035   -6.0802 H   0  0  0  0  0  0  0  0  0  0  0  0
   -2.2796   -2.5488   -6.0869 H   0  0  0  0  0  0  0  0  0  0  0  0
   -2.0752   -2.5123   -4.3424 H   0  0  0  0  0  0  0  0  0  0  0  0
   -5.6979   -0.5297   -6.6122 H   0  0  0  0  0  0  0  0  0  0  0  0
   -4.3569    0.5558   -6.2619 H   0  0  0  0  0  0  0  0  0  0  0  0
   -4.2241   -0.0597   -8.5794 H   0  0  0  0  0  0  0  0  0  0  0  0
   -2.8633   -0.7902   -7.7512 H   0  0  0  0  0  0  0  0  0  0  0  0
   -3.7111   -2.3863   -9.2978 H   0  0  0  0  0  0  0  0  0  0  0  0
   -4.1010   -2.9742   -7.6898 H   0  0  0  0  0  0  0  0  0  0  0  0
   -5.9526   -3.3463   -9.2119 H   0  0  0  0  0  0  0  0  0  0  0  0
   -6.4568   -2.2111   -7.9731 H   0  0  0  0  0  0  0  0  0  0  0  0
   -7.3043   -1.5551  -10.1438 H   0  0  0  0  0  0  0  0  0  0  0  0
   -6.2312   -0.3236   -9.5112 H   0  0  0  0  0  0  0  0  0  0  0  0
   -5.8837   -0.6266  -11.8888 H   0  0  0  0  0  0  0  0  0  0  0  0
   -4.4231   -1.0545  -11.0119 H   0  0  0  0  0  0  0  0  0  0  0  0
   -4.7881   -2.6192  -12.8082 H   0  0  0  0  0  0  0  0  0  0  0  0
   -4.9724   -3.4763  -11.2851 H   0  0  0  0  0  0  0  0  0  0  0  0
   -7.2886   -2.4251  -12.9788 H   0  0  0  0  0  0  0  0  0  0  0  0
   -6.7189   -4.0925  -12.9695 H   0  0  0  0  0  0  0  0  0  0  0  0
   -7.4444   -3.4074  -11.5209 H   0  0  0  0  0  0  0  0  0  0  0  0
   -5.9724   -2.8648   -4.3088 H   0  0  0  0  0  0  0  0  0  0  0  0
   -5.7225   -3.0211   -6.0427 H   0  0  0  0  0  0  0  0  0  0  0  0
   -5.1754   -5.1439   -5.1580 H   0  0  0  0  0  0  0  0  0  0  0  0
   -3.6268   -4.4100   -5.5247 H   0  0  0  0  0  0  0  0  0  0  0  0
   -3.2925   -5.3510   -3.3970 H   0  0  0  0  0  0  0  0  0  0  0  0
   -3.5998   -3.6562   -3.0345 H   0  0  0  0  0  0  0  0  0  0  0  0
   -4.8266   -4.9285   -1.4533 H   0  0  0  0  0  0  0  0  0  0  0  0
   -6.0199   -4.2712   -2.5606 H   0  0  0  0  0  0  0  0  0  0  0  0
   -6.5740   -6.5449   -2.0228 H   0  0  0  0  0  0  0  0  0  0  0  0
   -6.1896   -6.4365   -3.7286 H   0  0  0  0  0  0  0  0  0  0  0  0
   -5.2868   -8.4647   -2.7456 H   0  0  0  0  0  0  0  0  0  0  0  0
   -3.9945   -7.4542   -3.3703 H   0  0  0  0  0  0  0  0  0  0  0  0
   -3.3445   -8.4418   -1.2623 H   0  0  0  0  0  0  0  0  0  0  0  0
   -3.4534   -6.6996   -1.0611 H   0  0  0  0  0  0  0  0  0  0  0  0
   -5.6227   -8.6868   -0.2320 H   0  0  0  0  0  0  0  0  0  0  0  0
   -4.4419   -7.9650    0.8584 H   0  0  0  0  0  0  0  0  0  0  0  0
   -5.6490   -6.9501    0.0785 H   0  0  0  0  0  0  0  0  0  0  0  0
   -3.8745    0.3859   -3.6310 H   0  0  0  0  0  0  0  0  0  0  0  0
   -5.5634    0.0165   -3.9841 H   0  0  0  0  0  0  0  0  0  0  0  0
   -5.4317   -0.4269   -1.7022 H   0  0  0  0  0  0  0  0  0  0  0  0
   -5.2797   -2.0295   -2.3921 H   0  0  0  0  0  0  0  0  0  0  0  0
   -3.6187   -1.9975   -0.7461 H   0  0  0  0  0  0  0  0  0  0  0  0
   -2.7056   -1.6551   -2.2068 H   0  0  0  0  0  0  0  0  0  0  0  0
   -1.8985   -0.1332   -0.5939 H   0  0  0  0  0  0  0  0  0  0  0  0
   -2.9378    0.8395   -1.6241 H   0  0  0  0  0  0  0  0  0  0  0  0
   -3.2933    1.4463    0.6658 H   0  0  0  0  0  0  0  0  0  0  0  0
   -4.7594    0.7144    0.0440 H   0  0  0  0  0  0  0  0  0  0  0  0
   -4.3016    0.0059    2.3251 H   0  0  0  0  0  0  0  0  0  0  0  0
   -4.3127   -1.3700    1.2355 H   0  0  0  0  0  0  0  0  0  0  0  0
   -2.5343   -1.5960    2.8573 H   0  0  0  0  0  0  0  0  0  0  0  0
   -1.8262   -1.4252    1.2584 H   0  0  0  0  0  0  0  0  0  0  0  0
   -2.0969    0.8376    3.2955 H   0  0  0  0  0  0  0  0  0  0  0  0
   -0.6264   -0.0868    2.9988 H   0  0  0  0  0  0  0  0  0  0  0  0
   -1.2767    0.9537    1.7376 H   0  0  0  0  0  0  0  0  0  0  0  0
  1  2  1  0  0  0  0
  2  3  1  0  0  0  0
  3  4  1  0  0  0  0
  4  5  1  0  0  0  0
  5  6  1  0  0  0  0
  6  7  1  0  0  0  0
  7  8  1  0  0  0  0
  8  9  1  0  0  0  0
  9 10  1  0  0  0  0
 10 11  1  0  0  0  0
 11 12  1  0  0  0  0
 12 13  1  0  0  0  0
 13 14  1  0  0  0  0
 14 15  1  0  0  0  0
 15 16  1  0  0  0  0
 16 17  1  0  0  0  0
  9 18  1  0  0  0  0
 18 19  1  0  0  0  0
 19 20  1  0  0  0  0
 20 21  1  0  0  0  0
 21 22  1  0  0  0  0
 22 23  1  0  0  0  0
 23 24  1  0  0  0  0
 24 25  1  0  0  0  0
  9 26  1  0  0  0  0
 26 27  1  0  0  0  0
 27 28  1  0  0  0  0
 28 29  1  0  0  0  0
 29 30  1  0  0  0  0
 30 31  1  0  0  0  0
 31 32  1  0  0  0  0
 32 33  1  0  0  0  0
  1 34  1  0  0  0  0
  1 35  1  0  0  0  0
  1 36  1  0  0  0  0
  2 37  1  0  0  0  0
  2 38  1  0  0  0  0
  3 39  1  0  0  0  0
  3 40  1  0  0  0  0
  4 41  1  0  0  0  0
  4 42  1  0  0  0  0
  5 43  1  0  0  0  0
  5 44  1  0  0  0  0
  6 45  1  0  0  0  0
  6 46  1  0  0  0  0
  7 47  1  0  0  0  0
  7 48  1  0  0  0  0
  8 49  1  0  0  0  0
  8 50  1  0  0  0  0
 10 51  1  0  0  0  0
 10 52  1  0  0  0  0
 11 53  1  0  0  0  0
 11 54  1  0  0  0  0
 12 55  1  0  0  0  0
 12 56  1  0  0  0  0
 13 57  1  0  0  0  0
 13 58  1  0  0  0  0
 14 59  1  0  0  0  0
 14 60  1  0  0  0  0
 15 61  1  0  0  0  0
 15 62  1  0  0  0  0
 16 63  1  0  0  0  0
 16 64  1  0  0  0  0
 17 65  1  0  0  0  0
 17 66  1  0  0  0  0
 17 67  1  0  0  0  0
 18 68  1  0  0  0  0
 18 69  1  0  0  0  0
 19 70  1  0  0  0  0
 19 71  1  0  0  0  0
 20 72  1  0  0  0  0
 20 73  1  0  0  0  0
 21 74  1  0  0  0  0
 21 75  1  0  0  0  0
 22 76  1  0  0  0  0
 22 77  1  0  0  0  0
 23 78  1  0  0  0  0
 23 79  1  0  0  0  0
 24 80  1  0  0  0  0
 24 81  1  0  0  0  0
 25 82  1  0  0  0  0
 25 83  1  0  0  0  0
 25 84  1  0  0  0  0
 26 85  1  0  0  0  0
 26 86  1  0  0  0  0
 27 87  1  0  0  0  0
 27 88  1  0  0  0  0
 28 89  1  0  0  0  0
 28 90  1  0  0  0  0
 29 91  1  0  0  0  0
 29 92  1  0  0  0  0
 30 93  1  0  0  0  0
 30 94  1  0  0  0  0
 31 95  1  0  0  0  0
 31 96  1  0  0  0  0
 32 97  1  0  0  0  0
 32 98  1  0  0  0  0
 33 99  1  0  0  0  0
 33100  1  0  0  0  0
 33101  1  0  0  0  0
M  CHG  1   1   1
M  END
