 xtb: 6.7.1 (edcfbbe)
          12202406523D

 33 34  0     0  0            999 V2000
    0.7720    0.0608   -0.4253 C   0  0  0  0  0  0  0  0  0  0  0  0
    0.4666    1.5170   -0.7331 C   0  0  0  0  0  0  0  0  0  0  0  0
    1.3133    2.0065   -1.7914 O   0  0  0  0  0  0  0  0  0  0  0  0
    2.5281    2.4181   -1.4527 C   0  0  0  0  0  0  0  0  0  0  0  0
    2.9744    2.4988   -0.3491 O   0  0  0  0  0  0  0  0  0  0  0  0
    3.3286    2.8105   -2.7140 C   0  0  0  0  0  0  0  0  0  0  0  0
    2.8117    2.1630   -3.8884 N   0  0  0  0  0  0  0  0  0  0  0  0
    2.0155    2.6749   -4.8424 C   0  0  0  0  0  0  0  0  0  0  0  0
    1.6587    3.9582   -4.9545 N   0  0  0  0  0  0  0  0  0  0  0  0
    1.6569    1.7176   -5.7152 N   0  0  0  0  0  0  0  0  0  0  0  0
    2.2118    0.5145   -5.2904 C   0  0  0  0  0  0  0  0  0  0  0  0
    2.9348    0.7959   -4.1230 C   0  0  0  0  0  0  0  0  0  0  0  0
    3.5974   -0.1956   -3.4208 C   0  0  0  0  0  0  0  0  0  0  0  0
    3.5187   -1.4803   -3.9288 C   0  0  0  0  0  0  0  0  0  0  0  0
    2.8072   -1.7614   -5.0927 C   0  0  0  0  0  0  0  0  0  0  0  0
    2.1407   -0.7729   -5.7954 C   0  0  0  0  0  0  0  0  0  0  0  0
    0.8349    1.9221   -6.8817 C   0  0  0  0  0  0  0  0  0  0  0  0
    0.6854   -0.5463   -1.3240 H   0  0  0  0  0  0  0  0  0  0  0  0
    0.0669   -0.3031    0.3152 H   0  0  0  0  0  0  0  0  0  0  0  0
    1.7776   -0.0375   -0.0239 H   0  0  0  0  0  0  0  0  0  0  0  0
   -0.5490    1.6410   -1.1113 H   0  0  0  0  0  0  0  0  0  0  0  0
    0.6172    2.1383    0.1536 H   0  0  0  0  0  0  0  0  0  0  0  0
    3.3049    3.8969   -2.8198 H   0  0  0  0  0  0  0  0  0  0  0  0
    4.3701    2.5160   -2.5575 H   0  0  0  0  0  0  0  0  0  0  0  0
    1.8517    4.6151   -4.2190 H   0  0  0  0  0  0  0  0  0  0  0  0
    1.0191    4.2423   -5.6760 H   0  0  0  0  0  0  0  0  0  0  0  0
    4.1445    0.0157   -2.5169 H   0  0  0  0  0  0  0  0  0  0  0  0
    4.0182   -2.2827   -3.4104 H   0  0  0  0  0  0  0  0  0  0  0  0
    2.7713   -2.7764   -5.4541 H   0  0  0  0  0  0  0  0  0  0  0  0
    1.5912   -1.0083   -6.6918 H   0  0  0  0  0  0  0  0  0  0  0  0
   -0.1634    2.2608   -6.5980 H   0  0  0  0  0  0  0  0  0  0  0  0
    1.2928    2.6510   -7.5527 H   0  0  0  0  0  0  0  0  0  0  0  0
    0.7408    0.9786   -7.4119 H   0  0  0  0  0  0  0  0  0  0  0  0
  1  2  1  0  0  0  0
  2  3  1  0  0  0  0
  3  4  1  0  0  0  0
  4  5  2  0  0  0  0
  4  6  1  0  0  0  0
  6  7  1  0  0  0  0
  7  8  4  0  0  0  0
  8  9  4  0  0  0  0
  8 10  4  0  0  0  0
 10 11  1  0  0  0  0
  7 12  1  0  0  0  0
 11 12  4  0  0  0  0
 12 13  4  0  0  0  0
 13 14  4  0  0  0  0
 14 15  4  0  0  0  0
 11 16  4  0  0  0  0
 15 16  4  0  0  0  0
 10 17  1  0  0  0  0
  1 18  1  0  0  0  0
  1 19  1  0  0  0  0
  1 20  1  0  0  0  0
  2 21  1  0  0  0  0
  2 22  1  0  0  0  0
  6 23  1  0  0  0  0
  6 24  1  0  0  0  0
  9 25  1  0  0  0  0
  9 26  1  0  0  0  0
 13 27  1  0  0  0  0
 14 28  1  0  0  0  0
 15 29  1  0  0  0  0
 16 30  1  0  0  0  0
 17 31  1  0  0  0  0
 17 32  1  0  0  0  0
 17 33  1  0  0  0  0
M  CHG  1   1   1
M  END
