34

C         -0.83597       -0.79245        0.26676
N         -0.46461        0.08752       -0.83392
C         -0.21094        1.44409       -0.74286
C          0.12930        1.86605       -1.99730
N          0.08495        0.75300       -2.82053
C         -0.28615       -0.32107       -2.10028
C          0.40157        0.71274       -4.26135
C          1.43663       -0.36418       -4.56321
O          1.30911       -1.50866       -4.12418
C          2.59386       -0.04213       -5.43709
C          3.20685        1.21291       -5.42449
C          4.30017        1.46001       -6.25973
C          4.80051        0.45990       -7.10798
C          4.19165       -0.81597       -7.10912
C          3.09496       -1.05496       -6.26573
C          4.69866       -1.81816       -7.95162
C          5.79087       -1.56470       -8.78254
C          6.39003       -0.30876       -8.78110
C          5.89896        0.69800       -7.94883
H         -1.37235       -1.66186       -0.12261
H         -1.48289       -0.25466        0.96506
H          0.07339       -1.11874        0.77810
H         -0.30540        1.93482        0.21067
H          0.40397        2.82204       -2.40895
H         -0.42197       -1.33401       -2.46507
H         -0.51890        0.46328       -4.80063
H          0.71802        1.70595       -4.58494
H          2.88714        2.00955       -4.76031
H          4.77398        2.44065       -6.23876
H          2.63043       -2.04065       -6.25676
H          4.24901       -2.80899       -7.96876
H          6.17554       -2.34917       -9.43021
H          7.24259       -0.11275       -9.42729
H          6.38633        1.67078       -7.96317
