23

C          1.43526        0.51793        0.94558
O          0.69369       -0.49812        1.60339
C          1.10241       -1.82447        1.27115
C          0.18674       -2.44103        0.20902
N          0.61463       -2.13915       -1.16907
C          0.03158       -1.21527       -2.02243
C          0.70385       -1.29684       -3.20933
N          1.67334       -2.27443       -3.05337
C          1.60052       -2.78122       -1.81423
C          2.60692       -2.72676       -4.07741
H          1.13463        1.48274        1.36336
H          1.21256        0.52208       -0.12300
H          2.50932        0.38903        1.10795
H          2.15777       -1.86265        0.97742
H          0.99644       -2.40995        2.19082
H          0.19554       -3.53312        0.30239
H         -0.84544       -2.09531        0.33446
H         -0.79032       -0.61586       -1.66880
H          0.61480       -0.78847       -4.15435
H          2.22101       -3.57291       -1.40987
H          3.51333       -3.11040       -3.60120
H          2.13211       -3.52152       -4.65875
H          2.87082       -1.89274       -4.73296
