120

C          1.38964        0.49069        0.99311
C          1.13088        1.95198        1.33652
C          1.32373        2.90660        0.15223
C          0.39619        2.65002       -1.03810
C         -1.06275        3.06337       -0.80458
C         -1.36477        4.54963       -1.03463
C         -0.99342        5.10904       -2.41674
C         -1.46814        4.28882       -3.62388
C         -2.98290        4.29532       -3.86255
C         -3.53474        5.60066       -4.44833
C         -3.05393        5.94189       -5.86282
C         -4.02341        5.50238       -6.94220
O         -5.00324        6.18963       -7.23402
N         -3.83349        4.33425       -7.61409
C         -2.83912        3.29714       -7.42142
C         -3.51963        1.94290       -7.21125
C         -3.70574        1.13341       -8.50126
C         -2.42612        0.54499       -9.12502
C         -1.43611       -0.16754       -8.18267
C         -1.96703       -1.49472       -7.59761
O         -1.33770       -2.54514       -7.55114
O         -3.16513       -1.28860       -6.98642
C         -3.64149       -2.29054       -6.07488
C         -4.60198       -3.26898       -6.75043
C         -3.92344       -4.36011       -7.58563
C         -3.07832       -5.32597       -6.74174
C         -3.73443       -6.69489       -6.54128
C         -3.76300       -7.58454       -7.78926
C         -2.39313       -7.91266       -8.39585
C         -1.38750       -8.56218       -7.43843
C         -1.84722       -9.87820       -6.80156
C         -2.19886      -10.99435       -7.79063
C         -1.02810      -11.47047       -8.64729
N         -0.00895      -12.15562       -7.84606
C          1.21707      -11.63842       -7.45693
C          1.84036      -12.60994       -6.72532
N          0.98316      -13.69743       -6.69217
C         -0.12727      -13.41098       -7.38669
C          1.23309      -14.97104       -6.03051
N         -0.16195       -0.35560       -8.88453
C          1.09183       -0.51252       -8.37979
O          2.03131       -0.57250       -9.17504
C          1.32671       -0.64936       -6.88670
C          1.33714        0.65559       -6.08752
C          0.17579        0.91919       -5.11180
C         -0.37451       -0.30710       -4.38209
C         -1.52649        0.04730       -3.45751
H          0.61719        0.09008        0.32987
H          1.38443       -0.11719        1.90355
H          2.36273        0.36471        0.50769
H          0.12388        2.05378        1.75406
H          1.82861        2.24675        2.12962
H          1.20327        3.93894        0.50023
H          2.36099        2.81678       -0.19491
H          0.80367        3.16419       -1.91422
H          0.42689        1.58681       -1.29467
H         -1.70868        2.48064       -1.46895
H         -1.37658        2.79200        0.20939
H         -2.43689        4.70890       -0.86577
H         -0.84844        5.14349       -0.27064
H         -1.37062        6.13546       -2.49146
H          0.09841        5.19707       -2.47314
H         -0.94463        4.65586       -4.51224
H         -1.14190        3.25060       -3.51209
H         -3.24139        3.46802       -4.53158
H         -3.50115        4.08478       -2.91986
H         -4.63054        5.54582       -4.43484
H         -3.26337        6.42529       -3.77911
H         -2.99685        7.03543       -5.95141
H         -2.04377        5.59151       -6.08016
H         -4.52890        4.19658       -8.33941
H         -2.18968        3.29850       -8.30144
H         -2.21638        3.52801       -6.55719
H         -2.94938        1.35999       -6.48301
H         -4.50591        2.09268       -6.75255
H         -4.41041        0.31813       -8.30198
H         -4.20052        1.76028       -9.25416
H         -2.72359       -0.14701       -9.92429
H         -1.89661        1.36528       -9.62808
H         -1.20658        0.47691       -7.34201
H         -2.80940       -2.77703       -5.55723
H         -4.19706       -1.74208       -5.30544
H         -5.21559       -3.75306       -5.98111
H         -5.28050       -2.70848       -7.40494
H         -4.70153       -4.90445       -8.13201
H         -3.29574       -3.89720       -8.35357
H         -2.09329       -5.44325       -7.20519
H         -2.88601       -4.90873       -5.74793
H         -3.20685       -7.22000       -5.73647
H         -4.76156       -6.55347       -6.18241
H         -4.27836       -8.51824       -7.53442
H         -4.37723       -7.11098       -8.56375
H         -2.54484       -8.56522       -9.26368
H         -1.94598       -6.99698       -8.80046
H         -0.44850       -8.72492       -7.97981
H         -1.13994       -7.85659       -6.63635
H         -1.06225      -10.22860       -6.12086
H         -2.72181       -9.68844       -6.16834
H         -2.59051      -11.84452       -7.21857
H         -3.01266      -10.66709       -8.44663
H         -1.38867      -12.18964       -9.39239
H         -0.56231      -10.64782       -9.19879
H          1.48478      -10.63692       -7.74742
H          2.78907      -12.66953       -6.21990
H         -0.97184      -14.07210       -7.54465
H          0.29825      -15.34629       -5.60508
H          1.61445      -15.68140       -6.76850
H          1.96483      -14.83961       -5.22912
H         -0.17189       -0.39184       -9.89763
H          0.66209       -1.41235       -6.48753
H          2.32777       -1.09557       -6.79507
H          2.25343        0.65412       -5.48134
H          1.43063        1.51707       -6.76054
H          0.52692        1.64577       -4.36722
H         -0.63593        1.43004       -5.63749
H         -0.76063       -1.03998       -5.09236
H          0.42364       -0.79058       -3.80827
H         -2.32221        0.57160       -3.99628
H         -1.95397       -0.85996       -3.01925
H         -1.18355        0.68204       -2.64200
