 xtb: 6.7.1 (edcfbbe)
          12202406523D

 34 36  0     0  0            999 V2000
   -1.3003   -1.1256   -0.2536 C   0  0  0  0  0  0  0  0  0  0  0  0
   -0.5788   -0.1101   -0.9712 N   0  0  0  0  0  0  0  0  0  0  0  0
    0.0167    0.9810   -0.4112 C   0  0  0  0  0  0  0  0  0  0  0  0
    0.5914    1.6917   -1.4183 C   0  0  0  0  0  0  0  0  0  0  0  0
    0.3238    1.0334   -2.5822 N   0  0  0  0  0  0  0  0  0  0  0  0
   -0.3717   -0.0643   -2.2837 C   0  0  0  0  0  0  0  0  0  0  0  0
    0.9002    1.2875   -3.8678 C   0  0  0  0  0  0  0  0  0  0  0  0
    1.8006    0.0675   -4.2386 C   0  0  0  0  0  0  0  0  0  0  0  0
    1.7102   -0.9290   -3.5540 O   0  0  0  0  0  0  0  0  0  0  0  0
    2.6704    0.2158   -5.3913 C   0  0  0  0  0  0  0  0  0  0  0  0
    2.6604    1.3552   -6.2363 C   0  0  0  0  0  0  0  0  0  0  0  0
    3.5012    1.4213   -7.3063 C   0  0  0  0  0  0  0  0  0  0  0  0
    4.4023    0.3726   -7.6029 C   0  0  0  0  0  0  0  0  0  0  0  0
    4.4175   -0.7771   -6.7627 C   0  0  0  0  0  0  0  0  0  0  0  0
    3.5413   -0.8273   -5.6709 C   0  0  0  0  0  0  0  0  0  0  0  0
    5.3121   -1.8318   -7.0544 C   0  0  0  0  0  0  0  0  0  0  0  0
    6.1511   -1.7486   -8.1302 C   0  0  0  0  0  0  0  0  0  0  0  0
    6.1346   -0.6135   -8.9580 C   0  0  0  0  0  0  0  0  0  0  0  0
    5.2799    0.4256   -8.7012 C   0  0  0  0  0  0  0  0  0  0  0  0
   -1.5670   -1.9347   -0.9293 H   0  0  0  0  0  0  0  0  0  0  0  0
   -2.2094   -0.7072    0.1812 H   0  0  0  0  0  0  0  0  0  0  0  0
   -0.6816   -1.5235    0.5508 H   0  0  0  0  0  0  0  0  0  0  0  0
   -0.0046    1.1713    0.6423 H   0  0  0  0  0  0  0  0  0  0  0  0
    1.1548    2.6017   -1.3860 H   0  0  0  0  0  0  0  0  0  0  0  0
   -0.7272   -0.7856   -2.9927 H   0  0  0  0  0  0  0  0  0  0  0  0
    0.1218    1.3773   -4.6307 H   0  0  0  0  0  0  0  0  0  0  0  0
    1.4846    2.2062   -3.8286 H   0  0  0  0  0  0  0  0  0  0  0  0
    1.9794    2.1703   -6.0490 H   0  0  0  0  0  0  0  0  0  0  0  0
    3.4899    2.2867   -7.9519 H   0  0  0  0  0  0  0  0  0  0  0  0
    3.5412   -1.6934   -5.0248 H   0  0  0  0  0  0  0  0  0  0  0  0
    5.3177   -2.7005   -6.4131 H   0  0  0  0  0  0  0  0  0  0  0  0
    6.8332   -2.5547   -8.3523 H   0  0  0  0  0  0  0  0  0  0  0  0
    6.8050   -0.5668   -9.8026 H   0  0  0  0  0  0  0  0  0  0  0  0
    5.2686    1.2981   -9.3372 H   0  0  0  0  0  0  0  0  0  0  0  0
  1  2  1  0  0  0  0
  2  3  4  0  0  0  0
  3  4  2  0  0  0  0
  4  5  4  0  0  0  0
  2  6  4  0  0  0  0
  5  6  4  0  0  0  0
  5  7  1  0  0  0  0
  7  8  1  0  0  0  0
  8  9  2  0  0  0  0
  8 10  1  0  0  0  0
 10 11  4  0  0  0  0
 11 12  2  0  0  0  0
 12 13  4  0  0  0  0
 13 14  4  0  0  0  0
 10 15  4  0  0  0  0
 14 15  4  0  0  0  0
 14 16  4  0  0  0  0
 16 17  2  0  0  0  0
 17 18  4  0  0  0  0
 13 19  4  0  0  0  0
 18 19  2  0  0  0  0
  1 20  1  0  0  0  0
  1 21  1  0  0  0  0
  1 22  1  0  0  0  0
  3 23  1  0  0  0  0
  4 24  1  0  0  0  0
  6 25  1  0  0  0  0
  7 26  1  0  0  0  0
  7 27  1  0  0  0  0
 11 28  1  0  0  0  0
 12 29  1  0  0  0  0
 15 30  1  0  0  0  0
 16 31  1  0  0  0  0
 17 32  1  0  0  0  0
 18 33  1  0  0  0  0
 19 34  1  0  0  0  0
M  CHG  1   1   1
M  END
