 xtb: 6.7.1 (edcfbbe)
          12202406523D

 30 30  0     0  0            999 V2000
    2.2470    0.4679    0.8406 C   0  0  0  0  0  0  0  0  0  0  0  0
    1.1728   -0.1445    0.1539 O   0  0  0  0  0  0  0  0  0  0  0  0
    1.3241   -1.5487    0.0393 C   0  0  0  0  0  0  0  0  0  0  0  0
    0.0720   -2.1542   -0.5932 C   0  0  0  0  0  0  0  0  0  0  0  0
    0.0213   -2.0193   -2.0067 O   0  0  0  0  0  0  0  0  0  0  0  0
   -0.1404   -0.7347   -2.4925 C   0  0  0  0  0  0  0  0  0  0  0  0
   -1.5447   -0.3204   -2.4007 N   0  0  0  0  0  0  0  0  0  0  0  0
   -2.0770    0.6550   -1.6517 C   0  0  0  0  0  0  0  0  0  0  0  0
   -3.4018    0.6480   -1.8429 N   0  0  0  0  0  0  0  0  0  0  0  0
   -3.7144   -0.3589   -2.7138 C   0  0  0  0  0  0  0  0  0  0  0  0
   -2.5536   -0.9661   -3.0617 C   0  0  0  0  0  0  0  0  0  0  0  0
   -4.3512    1.5508   -1.2444 C   0  0  0  0  0  0  0  0  0  0  0  0
   -1.3411    1.5907   -0.7817 C   0  0  0  0  0  0  0  0  0  0  0  0
    2.0289    1.5329    0.8759 H   0  0  0  0  0  0  0  0  0  0  0  0
    3.1917    0.3036    0.3144 H   0  0  0  0  0  0  0  0  0  0  0  0
    2.3318    0.0762    1.8582 H   0  0  0  0  0  0  0  0  0  0  0  0
    2.2015   -1.7872   -0.5763 H   0  0  0  0  0  0  0  0  0  0  0  0
    1.4664   -1.9868    1.0356 H   0  0  0  0  0  0  0  0  0  0  0  0
    0.0701   -3.2314   -0.4257 H   0  0  0  0  0  0  0  0  0  0  0  0
   -0.8204   -1.7158   -0.1291 H   0  0  0  0  0  0  0  0  0  0  0  0
    0.4733    0.0019   -1.9641 H   0  0  0  0  0  0  0  0  0  0  0  0
    0.1305   -0.7683   -3.5531 H   0  0  0  0  0  0  0  0  0  0  0  0
   -4.7203   -0.5634   -3.0168 H   0  0  0  0  0  0  0  0  0  0  0  0
   -2.3598   -1.7974   -3.7074 H   0  0  0  0  0  0  0  0  0  0  0  0
   -4.3751    1.4221   -0.1613 H   0  0  0  0  0  0  0  0  0  0  0  0
   -4.0919    2.5846   -1.4737 H   0  0  0  0  0  0  0  0  0  0  0  0
   -5.3409    1.3401   -1.6422 H   0  0  0  0  0  0  0  0  0  0  0  0
   -0.5213    1.0811   -0.2746 H   0  0  0  0  0  0  0  0  0  0  0  0
   -0.9147    2.4036   -1.3708 H   0  0  0  0  0  0  0  0  0  0  0  0
   -2.0030    2.0233   -0.0373 H   0  0  0  0  0  0  0  0  0  0  0  0
  1  2  1  0  0  0  0
  2  3  1  0  0  0  0
  3  4  1  0  0  0  0
  4  5  1  0  0  0  0
  5  6  1  0  0  0  0
  6  7  1  0  0  0  0
  7  8  4  0  0  0  0
  8  9  4  0  0  0  0
  9 10  4  0  0  0  0
  7 11  4  0  0  0  0
 10 11  2  0  0  0  0
  9 12  1  0  0  0  0
  8 13  1  0  0  0  0
  1 14  1  0  0  0  0
  1 15  1  0  0  0  0
  1 16  1  0  0  0  0
  3 17  1  0  0  0  0
  3 18  1  0  0  0  0
  4 19  1  0  0  0  0
  4 20  1  0  0  0  0
  6 21  1  0  0  0  0
  6 22  1  0  0  0  0
 10 23  1  0  0  0  0
 11 24  1  0  0  0  0
 12 25  1  0  0  0  0
 12 26  1  0  0  0  0
 12 27  1  0  0  0  0
 13 28  1  0  0  0  0
 13 29  1  0  0  0  0
 13 30  1  0  0  0  0
M  CHG  1   1   1
M  END
