 xtb: 6.7.1 (edcfbbe)
          12202406523D

120120  0     0  0            999 V2000
    0.4387    3.8207    2.6034 C   0  0  0  0  0  0  0  0  0  0  0  0
    0.8059    4.7753    1.4732 C   0  0  0  0  0  0  0  0  0  0  0  0
    1.2200    4.0589    0.1872 C   0  0  0  0  0  0  0  0  0  0  0  0
    0.1378    3.1788   -0.4416 C   0  0  0  0  0  0  0  0  0  0  0  0
   -1.1678    3.8974   -0.7916 C   0  0  0  0  0  0  0  0  0  0  0  0
   -1.0251    5.0628   -1.7734 C   0  0  0  0  0  0  0  0  0  0  0  0
   -0.6099    4.6521   -3.1878 C   0  0  0  0  0  0  0  0  0  0  0  0
   -1.7384    4.0004   -3.9921 C   0  0  0  0  0  0  0  0  0  0  0  0
   -2.7278    5.0127   -4.5774 C   0  0  0  0  0  0  0  0  0  0  0  0
   -2.2232    5.6970   -5.8490 C   0  0  0  0  0  0  0  0  0  0  0  0
   -2.2622    4.7944   -7.0903 C   0  0  0  0  0  0  0  0  0  0  0  0
   -3.6978    4.5574   -7.5133 C   0  0  0  0  0  0  0  0  0  0  0  0
   -4.3352    5.4133   -8.0940 O   0  0  0  0  0  0  0  0  0  0  0  0
   -4.2972    3.3777   -7.2145 N   0  0  0  0  0  0  0  0  0  0  0  0
   -3.8160    2.1761   -6.5835 C   0  0  0  0  0  0  0  0  0  0  0  0
   -4.1111    0.9426   -7.4440 C   0  0  0  0  0  0  0  0  0  0  0  0
   -3.4839    0.9977   -8.8390 C   0  0  0  0  0  0  0  0  0  0  0  0
   -1.9596    1.1344   -8.8689 C   0  0  0  0  0  0  0  0  0  0  0  0
   -1.2375    0.0905   -8.0126 C   0  0  0  0  0  0  0  0  0  0  0  0
   -1.6121   -1.3239   -8.4649 C   0  0  0  0  0  0  0  0  0  0  0  0
   -1.4791   -1.7470   -9.5803 O   0  0  0  0  0  0  0  0  0  0  0  0
   -2.0481   -2.0465   -7.4278 O   0  0  0  0  0  0  0  0  0  0  0  0
   -2.3789   -3.4137   -7.6758 C   0  0  0  0  0  0  0  0  0  0  0  0
   -3.8304   -3.5632   -8.1254 C   0  0  0  0  0  0  0  0  0  0  0  0
   -4.1605   -4.9952   -8.5433 C   0  0  0  0  0  0  0  0  0  0  0  0
   -4.0683   -5.9905   -7.3881 C   0  0  0  0  0  0  0  0  0  0  0  0
   -4.5541   -7.3924   -7.7612 C   0  0  0  0  0  0  0  0  0  0  0  0
   -3.7755   -8.0634   -8.8956 C   0  0  0  0  0  0  0  0  0  0  0  0
   -2.2652   -8.1669   -8.6732 C   0  0  0  0  0  0  0  0  0  0  0  0
   -1.8465   -8.9276   -7.4130 C   0  0  0  0  0  0  0  0  0  0  0  0
   -2.3253  -10.3801   -7.3439 C   0  0  0  0  0  0  0  0  0  0  0  0
   -1.8668  -11.2680   -8.5014 C   0  0  0  0  0  0  0  0  0  0  0  0
   -0.3455  -11.4403   -8.5969 C   0  0  0  0  0  0  0  0  0  0  0  0
    0.1775  -12.1484   -7.4509 N   0  0  0  0  0  0  0  0  0  0  0  0
    0.6155  -11.5873   -6.2915 C   0  0  0  0  0  0  0  0  0  0  0  0
    0.9556  -12.6031   -5.4499 C   0  0  0  0  0  0  0  0  0  0  0  0
    0.7154  -13.7707   -6.1082 N   0  0  0  0  0  0  0  0  0  0  0  0
    0.2429  -13.4704   -7.3149 C   0  0  0  0  0  0  0  0  0  0  0  0
    0.9492  -15.0875   -5.5801 C   0  0  0  0  0  0  0  0  0  0  0  0
    0.1951    0.2401   -8.1477 N   0  0  0  0  0  0  0  0  0  0  0  0
    1.1659   -0.1822   -7.2900 C   0  0  0  0  0  0  0  0  0  0  0  0
    2.3260   -0.1944   -7.6398 O   0  0  0  0  0  0  0  0  0  0  0  0
    0.7251   -0.5595   -5.8897 C   0  0  0  0  0  0  0  0  0  0  0  0
    0.4512    0.6968   -5.0510 C   0  0  0  0  0  0  0  0  0  0  0  0
   -0.3389    0.3938   -3.7783 C   0  0  0  0  0  0  0  0  0  0  0  0
    0.4260   -0.4786   -2.7861 C   0  0  0  0  0  0  0  0  0  0  0  0
   -0.3774   -0.7098   -1.5118 C   0  0  0  0  0  0  0  0  0  0  0  0
   -0.4576    3.2543    2.3636 H   0  0  0  0  0  0  0  0  0  0  0  0
    0.2510    4.3769    3.5190 H   0  0  0  0  0  0  0  0  0  0  0  0
    1.2504    3.1202    2.7892 H   0  0  0  0  0  0  0  0  0  0  0  0
   -0.0343    5.4420    1.2726 H   0  0  0  0  0  0  0  0  0  0  0  0
    1.6433    5.3980    1.7973 H   0  0  0  0  0  0  0  0  0  0  0  0
    1.5450    4.8055   -0.5402 H   0  0  0  0  0  0  0  0  0  0  0  0
    2.0837    3.4247    0.4050 H   0  0  0  0  0  0  0  0  0  0  0  0
    0.5560    2.7238   -1.3427 H   0  0  0  0  0  0  0  0  0  0  0  0
   -0.0985    2.3639    0.2466 H   0  0  0  0  0  0  0  0  0  0  0  0
   -1.8617    3.1600   -1.2040 H   0  0  0  0  0  0  0  0  0  0  0  0
   -1.6198    4.2769    0.1265 H   0  0  0  0  0  0  0  0  0  0  0  0
   -1.9817    5.5879   -1.8225 H   0  0  0  0  0  0  0  0  0  0  0  0
   -0.2926    5.7692   -1.3811 H   0  0  0  0  0  0  0  0  0  0  0  0
   -0.2613    5.5378   -3.7222 H   0  0  0  0  0  0  0  0  0  0  0  0
    0.2342    3.9629   -3.1274 H   0  0  0  0  0  0  0  0  0  0  0  0
   -1.2968    3.4172   -4.8021 H   0  0  0  0  0  0  0  0  0  0  0  0
   -2.2803    3.3032   -3.3502 H   0  0  0  0  0  0  0  0  0  0  0  0
   -3.6757    4.5173   -4.7965 H   0  0  0  0  0  0  0  0  0  0  0  0
   -2.9320    5.7790   -3.8280 H   0  0  0  0  0  0  0  0  0  0  0  0
   -2.8424    6.5717   -6.0554 H   0  0  0  0  0  0  0  0  0  0  0  0
   -1.1986    6.0416   -5.6976 H   0  0  0  0  0  0  0  0  0  0  0  0
   -1.7789    5.3237   -7.9137 H   0  0  0  0  0  0  0  0  0  0  0  0
   -1.7166    3.8707   -6.9089 H   0  0  0  0  0  0  0  0  0  0  0  0
   -5.2656    3.3447   -7.5092 H   0  0  0  0  0  0  0  0  0  0  0  0
   -2.7473    2.2626   -6.4003 H   0  0  0  0  0  0  0  0  0  0  0  0
   -4.3089    2.0487   -5.6099 H   0  0  0  0  0  0  0  0  0  0  0  0
   -3.7718    0.0531   -6.9109 H   0  0  0  0  0  0  0  0  0  0  0  0
   -5.1935    0.8548   -7.5654 H   0  0  0  0  0  0  0  0  0  0  0  0
   -3.7672    0.0898   -9.3760 H   0  0  0  0  0  0  0  0  0  0  0  0
   -3.9048    1.8452   -9.3830 H   0  0  0  0  0  0  0  0  0  0  0  0
   -1.6283    1.0180   -9.9029 H   0  0  0  0  0  0  0  0  0  0  0  0
   -1.6604    2.1279   -8.5340 H   0  0  0  0  0  0  0  0  0  0  0  0
   -1.5135    0.2004   -6.9635 H   0  0  0  0  0  0  0  0  0  0  0  0
   -1.7055   -3.8008   -8.4483 H   0  0  0  0  0  0  0  0  0  0  0  0
   -2.1975   -3.9230   -6.7279 H   0  0  0  0  0  0  0  0  0  0  0  0
   -4.4920   -3.2422   -7.3184 H   0  0  0  0  0  0  0  0  0  0  0  0
   -3.9892   -2.9004   -8.9784 H   0  0  0  0  0  0  0  0  0  0  0  0
   -5.1761   -5.0124   -8.9432 H   0  0  0  0  0  0  0  0  0  0  0  0
   -3.4815   -5.2878   -9.3455 H   0  0  0  0  0  0  0  0  0  0  0  0
   -3.0405   -6.0448   -7.0276 H   0  0  0  0  0  0  0  0  0  0  0  0
   -4.6852   -5.6274   -6.5630 H   0  0  0  0  0  0  0  0  0  0  0  0
   -4.5158   -8.0218   -6.8691 H   0  0  0  0  0  0  0  0  0  0  0  0
   -5.6010   -7.3310   -8.0657 H   0  0  0  0  0  0  0  0  0  0  0  0
   -4.1929   -9.0603   -9.0534 H   0  0  0  0  0  0  0  0  0  0  0  0
   -3.9394   -7.5036   -9.8172 H   0  0  0  0  0  0  0  0  0  0  0  0
   -1.8192   -8.6369   -9.5530 H   0  0  0  0  0  0  0  0  0  0  0  0
   -1.8464   -7.1617   -8.6099 H   0  0  0  0  0  0  0  0  0  0  0  0
   -0.7564   -8.8857   -7.3384 H   0  0  0  0  0  0  0  0  0  0  0  0
   -2.2408   -8.4085   -6.5388 H   0  0  0  0  0  0  0  0  0  0  0  0
   -1.9979  -10.8140   -6.3943 H   0  0  0  0  0  0  0  0  0  0  0  0
   -3.4151  -10.3879   -7.3348 H   0  0  0  0  0  0  0  0  0  0  0  0
   -2.3293  -12.2525   -8.4007 H   0  0  0  0  0  0  0  0  0  0  0  0
   -2.2076  -10.8406   -9.4432 H   0  0  0  0  0  0  0  0  0  0  0  0
   -0.0966  -12.0083   -9.4955 H   0  0  0  0  0  0  0  0  0  0  0  0
    0.1404  -10.4657   -8.6508 H   0  0  0  0  0  0  0  0  0  0  0  0
    0.6653  -10.5279   -6.1439 H   0  0  0  0  0  0  0  0  0  0  0  0
    1.3435  -12.5729   -4.4522 H   0  0  0  0  0  0  0  0  0  0  0  0
   -0.0346  -14.1832   -8.0671 H   0  0  0  0  0  0  0  0  0  0  0  0
    0.6463  -15.8380   -6.3065 H   0  0  0  0  0  0  0  0  0  0  0  0
    2.0080  -15.2182   -5.3531 H   0  0  0  0  0  0  0  0  0  0  0  0
    0.3793  -15.2289   -4.6612 H   0  0  0  0  0  0  0  0  0  0  0  0
    0.5253    0.4117   -9.0897 H   0  0  0  0  0  0  0  0  0  0  0  0
   -0.1640   -1.1907   -5.9289 H   0  0  0  0  0  0  0  0  0  0  0  0
    1.5380   -1.1296   -5.4404 H   0  0  0  0  0  0  0  0  0  0  0  0
    1.4031    1.1627   -4.7920 H   0  0  0  0  0  0  0  0  0  0  0  0
   -0.1072    1.4196   -5.6507 H   0  0  0  0  0  0  0  0  0  0  0  0
   -0.5910    1.3376   -3.2907 H   0  0  0  0  0  0  0  0  0  0  0  0
   -1.2780   -0.1004   -4.0438 H   0  0  0  0  0  0  0  0  0  0  0  0
    0.6580   -1.4422   -3.2433 H   0  0  0  0  0  0  0  0  0  0  0  0
    1.3709    0.0078   -2.5358 H   0  0  0  0  0  0  0  0  0  0  0  0
   -1.3128   -1.2189   -1.7359 H   0  0  0  0  0  0  0  0  0  0  0  0
    0.1859   -1.3202   -0.8099 H   0  0  0  0  0  0  0  0  0  0  0  0
   -0.6108    0.2373   -1.0319 H   0  0  0  0  0  0  0  0  0  0  0  0
  1  2  1  0  0  0  0
  2  3  1  0  0  0  0
  3  4  1  0  0  0  0
  4  5  1  0  0  0  0
  5  6  1  0  0  0  0
  6  7  1  0  0  0  0
  7  8  1  0  0  0  0
  8  9  1  0  0  0  0
  9 10  1  0  0  0  0
 10 11  1  0  0  0  0
 11 12  1  0  0  0  0
 12 13  2  0  0  0  0
 12 14  4  0  0  0  0
 14 15  1  0  0  0  0
 15 16  1  0  0  0  0
 16 17  1  0  0  0  0
 17 18  1  0  0  0  0
 18 19  1  0  0  0  0
 19 20  1  0  0  0  0
 20 21  2  0  0  0  0
 20 22  1  0  0  0  0
 22 23  1  0  0  0  0
 23 24  1  0  0  0  0
 24 25  1  0  0  0  0
 25 26  1  0  0  0  0
 26 27  1  0  0  0  0
 27 28  1  0  0  0  0
 28 29  1  0  0  0  0
 29 30  1  0  0  0  0
 30 31  1  0  0  0  0
 31 32  1  0  0  0  0
 32 33  1  0  0  0  0
 33 34  1  0  0  0  0
 34 35  4  0  0  0  0
 35 36  2  0  0  0  0
 36 37  4  0  0  0  0
 34 38  4  0  0  0  0
 37 38  4  0  0  0  0
 37 39  1  0  0  0  0
 19 40  1  0  0  0  0
 40 41  4  0  0  0  0
 41 42  2  0  0  0  0
 41 43  1  0  0  0  0
 43 44  1  0  0  0  0
 44 45  1  0  0  0  0
 45 46  1  0  0  0  0
 46 47  1  0  0  0  0
  1 48  1  0  0  0  0
  1 49  1  0  0  0  0
  1 50  1  0  0  0  0
  2 51  1  0  0  0  0
  2 52  1  0  0  0  0
  3 53  1  0  0  0  0
  3 54  1  0  0  0  0
  4 55  1  0  0  0  0
  4 56  1  0  0  0  0
  5 57  1  0  0  0  0
  5 58  1  0  0  0  0
  6 59  1  0  0  0  0
  6 60  1  0  0  0  0
  7 61  1  0  0  0  0
  7 62  1  0  0  0  0
  8 63  1  0  0  0  0
  8 64  1  0  0  0  0
  9 65  1  0  0  0  0
  9 66  1  0  0  0  0
 10 67  1  0  0  0  0
 10 68  1  0  0  0  0
 11 69  1  0  0  0  0
 11 70  1  0  0  0  0
 14 71  1  0  0  0  0
 15 72  1  0  0  0  0
 15 73  1  0  0  0  0
 16 74  1  0  0  0  0
 16 75  1  0  0  0  0
 17 76  1  0  0  0  0
 17 77  1  0  0  0  0
 18 78  1  0  0  0  0
 18 79  1  0  0  0  0
 19 80  1  0  0  0  0
 23 81  1  0  0  0  0
 23 82  1  0  0  0  0
 24 83  1  0  0  0  0
 24 84  1  0  0  0  0
 25 85  1  0  0  0  0
 25 86  1  0  0  0  0
 26 87  1  0  0  0  0
 26 88  1  0  0  0  0
 27 89  1  0  0  0  0
 27 90  1  0  0  0  0
 28 91  1  0  0  0  0
 28 92  1  0  0  0  0
 29 93  1  0  0  0  0
 29 94  1  0  0  0  0
 30 95  1  0  0  0  0
 30 96  1  0  0  0  0
 31 97  1  0  0  0  0
 31 98  1  0  0  0  0
 32 99  1  0  0  0  0
 32100  1  0  0  0  0
 33101  1  0  0  0  0
 33102  1  0  0  0  0
 35103  1  0  0  0  0
 36104  1  0  0  0  0
 38105  1  0  0  0  0
 39106  1  0  0  0  0
 39107  1  0  0  0  0
 39108  1  0  0  0  0
 40109  1  0  0  0  0
 43110  1  0  0  0  0
 43111  1  0  0  0  0
 44112  1  0  0  0  0
 44113  1  0  0  0  0
 45114  1  0  0  0  0
 45115  1  0  0  0  0
 46116  1  0  0  0  0
 46117  1  0  0  0  0
 47118  1  0  0  0  0
 47119  1  0  0  0  0
 47120  1  0  0  0  0
M  CHG  1   1   1
M  END
