40

C          1.49369        0.28723        0.18858
C          1.12108        0.19689       -1.28270
C          1.81536       -0.94766       -2.02259
C          1.55730       -2.35495       -1.47458
C          0.08961       -2.76727       -1.32938
C         -0.70292       -2.76270       -2.64377
C         -1.29094       -4.12970       -3.01430
C         -2.22503       -4.71058       -1.95304
N         -3.56857       -4.98303       -2.48678
C         -3.99849       -6.22139       -2.93651
C         -5.30934       -6.08236       -3.28299
N         -5.64817       -4.76127       -3.04622
C         -4.57236       -4.08377       -2.58977
C         -4.50054       -2.62532       -2.27335
C         -6.97492       -4.18861       -3.26137
H          1.12715       -0.57757        0.74920
H          1.04883        1.18321        0.63349
H          2.57890        0.34854        0.31691
H          0.03360        0.10997       -1.38191
H          1.40102        1.13887       -1.77016
H          1.52314       -0.90516       -3.07806
H          2.89876       -0.77180       -2.00699
H          2.06270       -3.07810       -2.12711
H          2.03912       -2.44927       -0.49356
H          0.07426       -3.76405       -0.87285
H         -0.40831       -2.10453       -0.61163
H         -1.51908       -2.03500       -2.56175
H         -0.07874       -2.43052       -3.47993
H         -1.81192       -4.03643       -3.97473
H         -0.46199       -4.82939       -3.17907
H         -1.81465       -5.65793       -1.58185
H         -2.33608       -4.05815       -1.08145
H         -3.31246       -7.05051       -2.94149
H         -6.05216       -6.76030       -3.66610
H         -3.95565       -2.50765       -1.33710
H         -3.98066       -2.14881       -3.10526
H         -5.51241       -2.23565       -2.17009
H         -7.34985       -3.79542       -2.31236
H         -6.90190       -3.38569       -3.99942
H         -7.66453       -4.95430       -3.62676
