42

C          0.70877       -0.62629       -0.97862
C          0.01120       -1.22893        0.21902
C          0.80830       -2.22851        1.01059
N          0.70849       -3.56896        0.91631
C          1.48313       -4.20225        1.86379
C          2.12400       -3.20872        2.54307
N          1.74098       -1.99817        1.96923
C          2.21435       -0.67548        2.41996
C          3.27760       -0.06198        1.52548
O          3.13654        1.03335        0.99266
C          4.57284       -0.75874        1.38622
C          4.67293       -1.95550        0.67073
C          5.91344       -2.58841        0.55602
C          7.04506       -2.01295        1.13610
C          6.95030       -0.80192        1.82140
C          5.71171       -0.16689        1.94259
Cl         8.56645       -2.79929        0.99343
O         -0.13726       -4.15647       -0.04878
C         -0.21836       -5.52222        0.05847
C          0.65010       -6.32404       -0.68282
C          0.55688       -7.71144       -0.57677
C         -0.40943       -8.28537        0.25187
C         -1.29120       -7.47604        0.97059
C         -1.20203       -6.08820        0.87070
H          1.49562        0.06299       -0.66856
H         -0.00185       -0.06206       -1.59032
H          1.16985       -1.40000       -1.59931
H         -0.30421       -0.45867        0.92799
H         -0.88972       -1.76038       -0.10330
H          1.49722       -5.27430        1.95558
H          2.82575       -3.20748        3.36087
H          1.35381        0.00010        2.46178
H          2.60979       -0.75546        3.43840
H          3.81217       -2.38996        0.17185
H          6.00247       -3.51808       -0.00225
H          7.83913       -0.34282        2.24993
H          5.64954        0.79152        2.45523
H          1.39245       -5.88184       -1.34148
H          1.22638       -8.35180       -1.14804
H         -0.48690       -9.36909        0.32471
H         -2.05459       -7.93307        1.59750
H         -1.90003       -5.46201        1.41971
