 xtb: 6.7.1 (edcfbbe)
          12202406533D

 51 51  0     0  0            999 V2000
    0.1226    0.5697   -0.4058 C   0  0  0  0  0  0  0  0  0  0  0  0
   -0.1947   -0.6145   -1.3108 C   0  0  0  0  0  0  0  0  0  0  0  0
    0.5142   -1.9040   -0.8938 C   0  0  0  0  0  0  0  0  0  0  0  0
    0.0084   -2.4384    0.4511 C   0  0  0  0  0  0  0  0  0  0  0  0
   -1.4849   -2.7312    0.4467 C   0  0  0  0  0  0  0  0  0  0  0  0
   -2.3124   -2.1181    1.3777 C   0  0  0  0  0  0  0  0  0  0  0  0
   -3.6736   -2.3679    1.3750 C   0  0  0  0  0  0  0  0  0  0  0  0
   -4.2186   -3.2410    0.4493 C   0  0  0  0  0  0  0  0  0  0  0  0
   -3.3966   -3.8635   -0.4746 C   0  0  0  0  0  0  0  0  0  0  0  0
   -2.0354   -3.6138   -0.4740 C   0  0  0  0  0  0  0  0  0  0  0  0
    0.6359   -3.7342    0.8638 C   0  0  0  0  0  0  0  0  0  0  0  0
    0.8426   -4.0759    2.0054 O   0  0  0  0  0  0  0  0  0  0  0  0
    0.9458   -4.5403   -0.1748 O   0  0  0  0  0  0  0  0  0  0  0  0
    1.2958   -5.8829    0.1204 C   0  0  0  0  0  0  0  0  0  0  0  0
    2.7902   -6.1853   -0.0425 C   0  0  0  0  0  0  0  0  0  0  0  0
    3.7301   -5.7347    1.0271 N   0  0  0  0  0  0  0  0  0  0  0  0
    3.2486   -6.0954    2.4015 C   0  0  0  0  0  0  0  0  0  0  0  0
    3.0030   -7.5750    2.6510 C   0  0  0  0  0  0  0  0  0  0  0  0
    5.0594   -6.3863    0.7965 C   0  0  0  0  0  0  0  0  0  0  0  0
    5.7762   -5.9993   -0.4881 C   0  0  0  0  0  0  0  0  0  0  0  0
    3.8957   -4.2670    0.9942 C   0  0  0  0  0  0  0  0  0  0  0  0
   -0.2748    0.4220    0.5947 H   0  0  0  0  0  0  0  0  0  0  0  0
   -0.3237    1.4741   -0.8098 H   0  0  0  0  0  0  0  0  0  0  0  0
    1.1975    0.7239   -0.3353 H   0  0  0  0  0  0  0  0  0  0  0  0
   -1.2725   -0.7851   -1.3246 H   0  0  0  0  0  0  0  0  0  0  0  0
    0.1156   -0.3729   -2.3292 H   0  0  0  0  0  0  0  0  0  0  0  0
    0.3593   -2.6590   -1.6646 H   0  0  0  0  0  0  0  0  0  0  0  0
    1.5884   -1.7149   -0.8175 H   0  0  0  0  0  0  0  0  0  0  0  0
    0.2134   -1.7161    1.2454 H   0  0  0  0  0  0  0  0  0  0  0  0
   -1.8944   -1.4372    2.1043 H   0  0  0  0  0  0  0  0  0  0  0  0
   -4.3076   -1.8787    2.0983 H   0  0  0  0  0  0  0  0  0  0  0  0
   -5.2795   -3.4373    0.4483 H   0  0  0  0  0  0  0  0  0  0  0  0
   -3.8151   -4.5464   -1.1984 H   0  0  0  0  0  0  0  0  0  0  0  0
   -1.4024   -4.1047   -1.1989 H   0  0  0  0  0  0  0  0  0  0  0  0
    0.9200   -6.1414    1.1143 H   0  0  0  0  0  0  0  0  0  0  0  0
    0.7720   -6.4907   -0.6242 H   0  0  0  0  0  0  0  0  0  0  0  0
    2.8886   -7.2681   -0.1330 H   0  0  0  0  0  0  0  0  0  0  0  0
    3.1130   -5.7297   -0.9804 H   0  0  0  0  0  0  0  0  0  0  0  0
    4.0014   -5.7350    3.1055 H   0  0  0  0  0  0  0  0  0  0  0  0
    2.3310   -5.5319    2.5892 H   0  0  0  0  0  0  0  0  0  0  0  0
    3.9148   -8.1640    2.6102 H   0  0  0  0  0  0  0  0  0  0  0  0
    2.6017   -7.6732    3.6567 H   0  0  0  0  0  0  0  0  0  0  0  0
    2.2732   -7.9996    1.9680 H   0  0  0  0  0  0  0  0  0  0  0  0
    5.6942   -6.1276    1.6466 H   0  0  0  0  0  0  0  0  0  0  0  0
    4.9069   -7.4659    0.8019 H   0  0  0  0  0  0  0  0  0  0  0  0
    6.0094   -4.9399   -0.5313 H   0  0  0  0  0  0  0  0  0  0  0  0
    6.7200   -6.5387   -0.5123 H   0  0  0  0  0  0  0  0  0  0  0  0
    5.2209   -6.2821   -1.3774 H   0  0  0  0  0  0  0  0  0  0  0  0
    4.7543   -3.9791    1.5979 H   0  0  0  0  0  0  0  0  0  0  0  0
    4.0432   -3.9194   -0.0253 H   0  0  0  0  0  0  0  0  0  0  0  0
    3.0160   -3.7808    1.4071 H   0  0  0  0  0  0  0  0  0  0  0  0
  1  2  1  0  0  0  0
  2  3  1  0  0  0  0
  3  4  1  0  0  0  0
  4  5  1  0  0  0  0
  5  6  4  0  0  0  0
  6  7  4  0  0  0  0
  7  8  4  0  0  0  0
  8  9  4  0  0  0  0
  5 10  4  0  0  0  0
  9 10  4  0  0  0  0
  4 11  1  0  0  0  0
 11 12  2  0  0  0  0
 11 13  1  0  0  0  0
 13 14  1  0  0  0  0
 14 15  1  0  0  0  0
 15 16  1  0  0  0  0
 16 17  1  0  0  0  0
 17 18  1  0  0  0  0
 16 19  1  0  0  0  0
 19 20  1  0  0  0  0
 16 21  1  0  0  0  0
  1 22  1  0  0  0  0
  1 23  1  0  0  0  0
  1 24  1  0  0  0  0
  2 25  1  0  0  0  0
  2 26  1  0  0  0  0
  3 27  1  0  0  0  0
  3 28  1  0  0  0  0
  4 29  1  0  0  0  0
  6 30  1  0  0  0  0
  7 31  1  0  0  0  0
  8 32  1  0  0  0  0
  9 33  1  0  0  0  0
 10 34  1  0  0  0  0
 14 35  1  0  0  0  0
 14 36  1  0  0  0  0
 15 37  1  0  0  0  0
 15 38  1  0  0  0  0
 17 39  1  0  0  0  0
 17 40  1  0  0  0  0
 18 41  1  0  0  0  0
 18 42  1  0  0  0  0
 18 43  1  0  0  0  0
 19 44  1  0  0  0  0
 19 45  1  0  0  0  0
 20 46  1  0  0  0  0
 20 47  1  0  0  0  0
 20 48  1  0  0  0  0
 21 49  1  0  0  0  0
 21 50  1  0  0  0  0
 21 51  1  0  0  0  0
M  CHG  1   1   1
M  END
