35

O          2.68897       -0.73231        1.86941
C          3.51276       -0.34844        1.04325
C          4.03337       -1.25946        0.01346
C          5.13149       -2.07165        0.29520
C          5.64177       -2.89100       -0.71192
C          5.05056       -2.89896       -1.97810
C          3.94337       -2.09279       -2.24585
C          3.42981       -1.26707       -1.24843
C          3.89812        1.11278        0.90915
N          2.87064        1.85009        0.16874
C          3.09524        2.69798       -0.91987
C          4.26808        3.06642       -1.57638
C          4.12000        3.93776       -2.66423
C          2.85774        4.41463       -3.06632
C          1.68243        4.04417       -2.39836
C          1.83930        3.17648       -1.32119
N          0.93011        2.58514       -0.46131
C          1.56997        1.85666        0.45444
N          0.96397        1.22335        1.45628
N         -0.51070        2.74816       -0.55524
H          5.59127       -2.07893        1.28000
H          6.49829       -3.53206       -0.51366
H          5.44958       -3.54603       -2.75777
H          3.48149       -2.11720       -3.23027
H          2.56247       -0.64859       -1.46113
H          3.99174        1.54912        1.90936
H          4.87290        1.19761        0.42068
H          5.24169        2.70502       -1.27092
H          5.00598        4.25743       -3.21445
H          2.79555        5.09166       -3.91912
H          0.71123        4.41248       -2.70073
H          1.45141        0.52585        2.01891
H         -0.01118        1.39609        1.64098
H         -1.02242        1.90358       -0.29931
H         -0.80809        3.07477       -1.47571
