 xtb: 6.7.1 (edcfbbe)
          12202406533D

 32 32  0     0  0            999 V2000
    2.0368   -0.5906    2.0832 C   0  0  0  0  0  0  0  0  0  0  0  0
    0.7427   -0.4251    1.3472 C   0  0  0  0  0  0  0  0  0  0  0  0
    0.4499    0.6757    0.6689 C   0  0  0  0  0  0  0  0  0  0  0  0
   -0.2708   -1.5373    1.5166 C   0  0  0  0  0  0  0  0  0  0  0  0
   -0.3724   -2.4923    0.3568 N   0  0  0  0  0  0  0  0  0  0  0  0
   -1.3095   -3.5771    0.7486 C   0  0  0  0  0  0  0  0  0  0  0  0
   -2.6254   -3.2482    1.0567 C   0  0  0  0  0  0  0  0  0  0  0  0
   -3.5148   -4.2439    1.4237 C   0  0  0  0  0  0  0  0  0  0  0  0
   -3.1170   -5.5644    1.4874 C   0  0  0  0  0  0  0  0  0  0  0  0
   -1.8024   -5.8974    1.1791 C   0  0  0  0  0  0  0  0  0  0  0  0
   -0.8992   -4.8950    0.8108 C   0  0  0  0  0  0  0  0  0  0  0  0
   -1.3275   -7.1505    1.2119 O   0  0  0  0  0  0  0  0  0  0  0  0
    0.9746   -2.9918    0.0286 C   0  0  0  0  0  0  0  0  0  0  0  0
   -0.9032   -1.8283   -0.8510 C   0  0  0  0  0  0  0  0  0  0  0  0
    1.8542   -0.5002    3.1532 H   0  0  0  0  0  0  0  0  0  0  0  0
    2.7411    0.1855    1.7989 H   0  0  0  0  0  0  0  0  0  0  0  0
    2.4976   -1.5599    1.9111 H   0  0  0  0  0  0  0  0  0  0  0  0
   -0.5065    0.8434    0.2039 H   0  0  0  0  0  0  0  0  0  0  0  0
    1.1612    1.4771    0.5749 H   0  0  0  0  0  0  0  0  0  0  0  0
   -0.0155   -2.1365    2.3938 H   0  0  0  0  0  0  0  0  0  0  0  0
   -1.2583   -1.1034    1.6754 H   0  0  0  0  0  0  0  0  0  0  0  0
   -2.9832   -2.2327    1.0200 H   0  0  0  0  0  0  0  0  0  0  0  0
   -4.5323   -3.9797    1.6618 H   0  0  0  0  0  0  0  0  0  0  0  0
   -3.8192   -6.3327    1.7737 H   0  0  0  0  0  0  0  0  0  0  0  0
    0.0988   -5.2275    0.5879 H   0  0  0  0  0  0  0  0  0  0  0  0
   -2.0086   -7.7841    1.4731 H   0  0  0  0  0  0  0  0  0  0  0  0
    1.4189   -3.4818    0.8923 H   0  0  0  0  0  0  0  0  0  0  0  0
    0.9242   -3.6921   -0.8027 H   0  0  0  0  0  0  0  0  0  0  0  0
    1.6006   -2.1505   -0.2638 H   0  0  0  0  0  0  0  0  0  0  0  0
   -1.8688   -1.3724   -0.6506 H   0  0  0  0  0  0  0  0  0  0  0  0
   -0.2096   -1.0587   -1.1837 H   0  0  0  0  0  0  0  0  0  0  0  0
   -1.0265   -2.5672   -1.6411 H   0  0  0  0  0  0  0  0  0  0  0  0
  1  2  1  0  0  0  0
  2  3  2  0  0  0  0
  2  4  1  0  0  0  0
  4  5  1  0  0  0  0
  5  6  1  0  0  0  0
  6  7  4  0  0  0  0
  7  8  4  0  0  0  0
  8  9  4  0  0  0  0
  9 10  4  0  0  0  0
  6 11  4  0  0  0  0
 10 11  4  0  0  0  0
 10 12  1  0  0  0  0
  5 13  1  0  0  0  0
  5 14  1  0  0  0  0
  1 15  1  0  0  0  0
  1 16  1  0  0  0  0
  1 17  1  0  0  0  0
  3 18  1  0  0  0  0
  3 19  1  0  0  0  0
  4 20  1  0  0  0  0
  4 21  1  0  0  0  0
  7 22  1  0  0  0  0
  8 23  1  0  0  0  0
  9 24  1  0  0  0  0
 11 25  1  0  0  0  0
 12 26  1  0  0  0  0
 13 27  1  0  0  0  0
 13 28  1  0  0  0  0
 13 29  1  0  0  0  0
 14 30  1  0  0  0  0
 14 31  1  0  0  0  0
 14 32  1  0  0  0  0
M  CHG  1   1   1
M  END
