51

C          1.01747        0.10016       -0.23871
C          0.29339       -0.77595       -1.25155
C          0.38315       -2.27833       -0.95313
C         -0.23425       -2.75126        0.38417
C         -1.75301       -2.69221        0.41378
C         -2.39559       -1.48672        0.73940
C         -3.78739       -1.41197        0.81006
C         -4.55932       -2.54482        0.57241
C         -3.94114       -3.74723        0.24240
C         -2.54951       -3.81837        0.14783
C          0.28789       -4.12650        0.81272
O          0.25450       -4.54585        1.96172
O          0.83297       -4.82763       -0.22129
C          1.25478       -6.17499        0.05255
C          2.77482       -6.33208       -0.11481
N          3.66757       -5.72119        1.00471
C          3.25310       -6.19734        2.42528
C          3.35970       -7.69997        2.62799
C          5.14871       -6.11798        0.75921
C          5.71657       -5.58033       -0.54740
C          3.57500       -4.18810        1.00852
H          0.55651        0.04728        0.75111
H          0.98507        1.14695       -0.55809
H          2.06833       -0.19174       -0.14525
H         -0.75089       -0.46064       -1.33684
H          0.74636       -0.59922       -2.23532
H         -0.08218       -2.82257       -1.78544
H          1.44888       -2.54384       -0.97379
H          0.14647       -2.09316        1.17674
H         -1.82020       -0.58785        0.94874
H         -4.26928       -0.46995        1.06041
H         -5.64252       -2.49074        0.64653
H         -4.54538       -4.63367        0.06477
H         -2.10897       -4.77700       -0.11393
H          0.89135       -6.56145        1.00870
H          0.77340       -6.79035       -0.71728
H          3.03307       -7.39453       -0.17213
H          3.07932       -5.85065       -1.04991
H          3.90050       -5.67265        3.13770
H          2.22837       -5.86752        2.60247
H          4.40003       -8.03695        2.62562
H          2.94480       -7.96366        3.60701
H          2.80390       -8.26675        1.87727
H          5.72535       -5.73686        1.60980
H          5.20212       -7.21059        0.75482
H          5.61134       -4.49648       -0.64121
H          6.78697       -5.80624       -0.59723
H          5.24968       -6.05294       -1.41614
H          4.47087       -3.78490        1.49021
H          3.49805       -3.83182       -0.02182
H          2.70583       -3.87932        1.58772
