36

C          0.96233        0.41467        1.12382
C          0.33755        1.32131        0.10934
O         -0.86522        1.40529       -0.09935
O          1.28834        1.95931       -0.62937
C          0.81247        3.00584       -1.49240
C          1.20421        2.78061       -2.96084
N          0.45783        1.65586       -3.71727
C         -1.08377        1.81731       -3.69751
C         -1.65555        2.96170       -4.49866
C         -1.75725        4.25374       -3.96273
C         -2.27700        5.30113       -4.72669
C         -2.71220        5.06942       -6.02897
C         -2.63595        3.78923       -6.56917
C         -2.11326        2.74148       -5.81001
C          0.96681        1.66803       -5.16487
C          0.79758        0.28503       -3.13921
H          1.05588       -0.59027        0.70597
H          0.33725        0.39383        2.02064
H          1.94892        0.78716        1.41351
H         -0.25480        3.20936       -1.37643
H          1.32340        3.91496       -1.15336
H          1.03583        3.70329       -3.52638
H          2.27059        2.53171       -3.02330
H         -1.49329        0.87389       -4.08301
H         -1.40333        1.88028       -2.65346
H         -1.45885        4.46764       -2.94007
H         -2.35911        6.30026       -4.30276
H         -3.12775        5.88473       -6.61788
H         -2.99677        3.60739       -7.57973
H         -2.08432        1.74826       -6.25510
H          2.03184        1.41504       -5.15431
H          0.40775        0.92290       -5.73842
H          0.83173        2.66834       -5.58515
H          1.87882        0.22476       -2.98631
H          0.25696        0.14573       -2.20441
H          0.47567       -0.48111       -3.85213
