16

C          1.53681       -1.54303       -0.00179
N          0.34939       -0.69158       -0.00005
C         -0.96316       -1.14977        0.00076
C         -1.76758       -0.04868        0.00066
N         -0.92861        1.03725        0.00017
C          0.35812        0.65793        0.00064
C          1.52388        1.58294        0.00175
H          2.12330       -1.33273       -0.90003
H          2.12836       -1.32988        0.89243
H          1.24719       -2.59727        0.00077
H         -1.15260       -2.20992        0.00110
H         -2.83128        0.11111        0.00088
H         -1.22908        2.00910       -0.00020
H          1.44646        2.19421       -0.89849
H          1.44596        2.19236        0.90321
H          2.44351        0.99937        0.00146
