36

C          0.96230        0.21180        0.40449
C          0.38555        1.61934        0.43818
C          0.90108        2.52542       -0.68324
C          0.67849        2.01050       -2.10736
C         -0.77768        1.73172       -2.48851
C         -1.69763        2.95122       -2.50834
N         -1.22949        4.03342       -3.41842
C         -1.21998        5.31195       -2.96753
C         -0.84191        6.36683       -3.79780
C         -0.88105        7.77926       -3.29114
C         -0.45673        6.08407       -5.10636
C         -0.48827        4.77169       -5.57244
C         -0.89663        3.76186       -4.70317
C         -0.03833        4.43754       -6.96445
H          0.61462       -0.34321       -0.47197
H          0.64678       -0.34507        1.29272
H          2.05648        0.23367        0.38907
H         -0.70824        1.56628        0.41097
H          0.64828        2.07950        1.39848
H          0.44156        3.51475       -0.57538
H          1.97919        2.67558       -0.54215
H          1.11133        2.73333       -2.80873
H          1.25331        1.08700       -2.24815
H         -0.78575        1.24456       -3.46997
H         -1.20395        0.99091       -1.80209
H         -2.69782        2.67617       -2.86272
H         -1.80142        3.36421       -1.49946
H         -1.53247        5.48478       -1.94102
H         -1.91313        8.06627       -3.06419
H         -0.27239        7.87652       -2.38687
H         -0.49230        8.48351       -4.03425
H         -0.14180        6.89009       -5.77044
H         -0.95461        2.72908       -5.03228
H          1.00400        4.10340       -6.94757
H         -0.65979        3.64383       -7.39179
H         -0.11631        5.30678       -7.62553
