13

C          1.03047        0.04884        0.04093
N          0.49774        0.23257        1.44354
N          0.98180        1.49335        1.95782
C         -1.01347        0.24978        1.47217
H          0.68106        0.87579       -0.58447
H          0.65493       -0.90748       -0.33273
H          2.12269        0.02425        0.09345
H          0.82294       -0.56469        2.01988
H          0.67806        1.69190        2.92160
H          2.00893        1.56107        1.98969
H         -1.36251       -0.70915        1.07996
H         -1.33173        0.36385        2.51236
H         -1.37251        1.07768        0.85352
