 xtb: 6.7.1 (edcfbbe)
          12202406533D

 51 51  0     0  0            999 V2000
    1.0784    0.3330    0.1209 C   0  0  0  0  0  0  0  0  0  0  0  0
    0.7822    0.3188   -1.3738 C   0  0  0  0  0  0  0  0  0  0  0  0
    1.2515   -0.9590   -2.0715 C   0  0  0  0  0  0  0  0  0  0  0  0
    0.6116   -2.2498   -1.5554 C   0  0  0  0  0  0  0  0  0  0  0  0
   -0.9160   -2.2897   -1.6292 C   0  0  0  0  0  0  0  0  0  0  0  0
   -1.4994   -2.1042   -3.0312 C   0  0  0  0  0  0  0  0  0  0  0  0
   -1.0472   -3.1402   -4.0637 C   0  0  0  0  0  0  0  0  0  0  0  0
   -1.3232   -4.5978   -3.6832 C   0  0  0  0  0  0  0  0  0  0  0  0
   -2.7822   -4.9170   -3.3620 C   0  0  0  0  0  0  0  0  0  0  0  0
   -3.7406   -4.7463   -4.5517 C   0  0  0  0  0  0  0  0  0  0  0  0
   -3.4854   -5.7543   -5.5618 N   0  0  0  0  0  0  0  0  0  0  0  0
   -2.6358   -5.4999   -6.5642 C   0  0  0  0  0  0  0  0  0  0  0  0
   -2.3246   -6.4659   -7.4962 C   0  0  0  0  0  0  0  0  0  0  0  0
   -2.9009   -7.7299   -7.3895 C   0  0  0  0  0  0  0  0  0  0  0  0
   -3.7793   -7.9759   -6.3356 C   0  0  0  0  0  0  0  0  0  0  0  0
   -4.0458   -6.9646   -5.4390 C   0  0  0  0  0  0  0  0  0  0  0  0
   -2.5558   -8.7673   -8.4325 C   0  0  0  0  0  0  0  0  0  0  0  0
   -1.8728   -8.4982   -9.3828 O   0  0  0  0  0  0  0  0  0  0  0  0
   -3.0806   -9.9402   -8.1396 O   0  0  0  0  0  0  0  0  0  0  0  0
   -2.8416  -11.0219   -9.0597 C   0  0  0  0  0  0  0  0  0  0  0  0
   -3.8844  -11.0396  -10.1654 C   0  0  0  0  0  0  0  0  0  0  0  0
    0.5013   -0.4241    0.6459 H   0  0  0  0  0  0  0  0  0  0  0  0
    0.8248    1.3020    0.5437 H   0  0  0  0  0  0  0  0  0  0  0  0
    2.1349    0.1481    0.3012 H   0  0  0  0  0  0  0  0  0  0  0  0
   -0.2881    0.4622   -1.5343 H   0  0  0  0  0  0  0  0  0  0  0  0
    1.2941    1.1630   -1.8413 H   0  0  0  0  0  0  0  0  0  0  0  0
    1.0652   -0.8608   -3.1436 H   0  0  0  0  0  0  0  0  0  0  0  0
    2.3325   -1.0478   -1.9405 H   0  0  0  0  0  0  0  0  0  0  0  0
    1.0284   -3.0880   -2.1192 H   0  0  0  0  0  0  0  0  0  0  0  0
    0.9006   -2.3953   -0.5136 H   0  0  0  0  0  0  0  0  0  0  0  0
   -1.2556   -3.2402   -1.2102 H   0  0  0  0  0  0  0  0  0  0  0  0
   -1.3218   -1.5021   -0.9931 H   0  0  0  0  0  0  0  0  0  0  0  0
   -2.5902   -2.1083   -2.9566 H   0  0  0  0  0  0  0  0  0  0  0  0
   -1.2148   -1.1196   -3.4039 H   0  0  0  0  0  0  0  0  0  0  0  0
   -1.5246   -2.8969   -5.0176 H   0  0  0  0  0  0  0  0  0  0  0  0
    0.0272   -3.0384   -4.2184 H   0  0  0  0  0  0  0  0  0  0  0  0
   -0.9660   -5.2501   -4.4869 H   0  0  0  0  0  0  0  0  0  0  0  0
   -0.7341   -4.8409   -2.7990 H   0  0  0  0  0  0  0  0  0  0  0  0
   -2.8537   -5.9426   -2.9929 H   0  0  0  0  0  0  0  0  0  0  0  0
   -3.1289   -4.2564   -2.5686 H   0  0  0  0  0  0  0  0  0  0  0  0
   -4.7707   -4.8478   -4.2056 H   0  0  0  0  0  0  0  0  0  0  0  0
   -3.6123   -3.7561   -4.9892 H   0  0  0  0  0  0  0  0  0  0  0  0
   -2.2156   -4.5066   -6.6207 H   0  0  0  0  0  0  0  0  0  0  0  0
   -1.6453   -6.2610   -8.3104 H   0  0  0  0  0  0  0  0  0  0  0  0
   -4.2441   -8.9429   -6.2269 H   0  0  0  0  0  0  0  0  0  0  0  0
   -4.7214   -7.1124   -4.6088 H   0  0  0  0  0  0  0  0  0  0  0  0
   -1.8382  -10.9094   -9.4798 H   0  0  0  0  0  0  0  0  0  0  0  0
   -2.8960  -11.9237   -8.4482 H   0  0  0  0  0  0  0  0  0  0  0  0
   -3.8162  -10.1359  -10.7663 H   0  0  0  0  0  0  0  0  0  0  0  0
   -3.7071  -11.8971  -10.8069 H   0  0  0  0  0  0  0  0  0  0  0  0
   -4.8845  -11.1153   -9.7460 H   0  0  0  0  0  0  0  0  0  0  0  0
  1  2  1  0  0  0  0
  2  3  1  0  0  0  0
  3  4  1  0  0  0  0
  4  5  1  0  0  0  0
  5  6  1  0  0  0  0
  6  7  1  0  0  0  0
  7  8  1  0  0  0  0
  8  9  1  0  0  0  0
  9 10  1  0  0  0  0
 10 11  1  0  0  0  0
 11 12  4  0  0  0  0
 12 13  4  0  0  0  0
 13 14  4  0  0  0  0
 14 15  4  0  0  0  0
 11 16  4  0  0  0  0
 15 16  4  0  0  0  0
 14 17  1  0  0  0  0
 17 18  2  0  0  0  0
 17 19  1  0  0  0  0
 19 20  1  0  0  0  0
 20 21  1  0  0  0  0
  1 22  1  0  0  0  0
  1 23  1  0  0  0  0
  1 24  1  0  0  0  0
  2 25  1  0  0  0  0
  2 26  1  0  0  0  0
  3 27  1  0  0  0  0
  3 28  1  0  0  0  0
  4 29  1  0  0  0  0
  4 30  1  0  0  0  0
  5 31  1  0  0  0  0
  5 32  1  0  0  0  0
  6 33  1  0  0  0  0
  6 34  1  0  0  0  0
  7 35  1  0  0  0  0
  7 36  1  0  0  0  0
  8 37  1  0  0  0  0
  8 38  1  0  0  0  0
  9 39  1  0  0  0  0
  9 40  1  0  0  0  0
 10 41  1  0  0  0  0
 10 42  1  0  0  0  0
 12 43  1  0  0  0  0
 13 44  1  0  0  0  0
 15 45  1  0  0  0  0
 16 46  1  0  0  0  0
 20 47  1  0  0  0  0
 20 48  1  0  0  0  0
 21 49  1  0  0  0  0
 21 50  1  0  0  0  0
 21 51  1  0  0  0  0
M  CHG  1   1   1
M  END
