30

C          1.13856        0.93288        1.72527
O          0.67068       -0.09807        0.85866
C          1.03404       -1.39358        1.33218
C          0.41609       -2.48217        0.43605
N          0.91913       -2.50433       -1.03939
C          2.46189       -2.52950       -1.14304
C          3.10524       -3.71821       -0.44657
C          0.34477       -3.74614       -1.76616
C         -1.16819       -3.72520       -1.93074
C          0.45389       -1.22903       -1.76939
H          0.69601        0.82556        2.72010
H          0.83380        1.89602        1.30759
H          2.23039        0.90777        1.79120
H          2.12337       -1.48156        1.38388
H          0.63820       -1.52286        2.34669
H          0.61379       -3.47405        0.85516
H         -0.66704       -2.33046        0.38990
H          2.70953       -2.53965       -2.21131
H          2.84008       -1.59196       -0.72239
H          2.81398       -4.66899       -0.90072
H          4.19457       -3.64343       -0.53481
H          2.86984       -3.75353        0.62011
H          0.82714       -3.79617       -2.74900
H          0.63467       -4.62727       -1.18536
H         -1.50676       -2.88358       -2.54106
H         -1.48859       -4.63970       -2.44185
H         -1.68945       -3.69582       -0.97061
H         -0.59178       -1.03466       -1.51757
H          1.08657       -0.38988       -1.47161
H          0.56800       -1.39424       -2.84538
