 xtb: 6.7.1 (edcfbbe)
          12202406533D

 25 25  0     0  0            999 V2000
    1.2455    0.1044    0.1948 C   0  0  0  0  0  0  0  0  0  0  0  0
    0.4089   -0.5230    1.3053 C   0  0  0  0  0  0  0  0  0  0  0  0
    0.6640    0.1649    2.6635 C   0  0  0  0  0  0  0  0  0  0  0  0
    0.2798    1.5556    2.6551 N   0  0  0  0  0  0  0  0  0  0  0  0
   -0.9518    2.0444    2.9646 C   0  0  0  0  0  0  0  0  0  0  0  0
   -0.9186    3.3911    2.7614 C   0  0  0  0  0  0  0  0  0  0  0  0
    0.3326    3.7029    2.3244 N   0  0  0  0  0  0  0  0  0  0  0  0
    1.0395    2.5767    2.2675 C   0  0  0  0  0  0  0  0  0  0  0  0
    0.8050    5.0263    2.0165 C   0  0  0  0  0  0  0  0  0  0  0  0
   -1.0734   -0.5191    0.9447 C   0  0  0  0  0  0  0  0  0  0  0  0
    0.9312    1.1260   -0.0116 H   0  0  0  0  0  0  0  0  0  0  0  0
    1.1234   -0.4670   -0.7204 H   0  0  0  0  0  0  0  0  0  0  0  0
    2.3022    0.1008    0.4505 H   0  0  0  0  0  0  0  0  0  0  0  0
    0.7314   -1.5596    1.4373 H   0  0  0  0  0  0  0  0  0  0  0  0
    0.0890   -0.3404    3.4414 H   0  0  0  0  0  0  0  0  0  0  0  0
    1.7257    0.1009    2.9105 H   0  0  0  0  0  0  0  0  0  0  0  0
   -1.7511    1.4209    3.3089 H   0  0  0  0  0  0  0  0  0  0  0  0
   -1.6836    4.1286    2.8946 H   0  0  0  0  0  0  0  0  0  0  0  0
    2.0670    2.5056    1.9682 H   0  0  0  0  0  0  0  0  0  0  0  0
    1.0117    5.5770    2.9356 H   0  0  0  0  0  0  0  0  0  0  0  0
    1.7179    4.9684    1.4276 H   0  0  0  0  0  0  0  0  0  0  0  0
    0.0473    5.5680    1.4521 H   0  0  0  0  0  0  0  0  0  0  0  0
   -1.2312   -1.1039    0.0433 H   0  0  0  0  0  0  0  0  0  0  0  0
   -1.6699   -0.9635    1.7376 H   0  0  0  0  0  0  0  0  0  0  0  0
   -1.4344    0.4896    0.7524 H   0  0  0  0  0  0  0  0  0  0  0  0
  1  2  1  0  0  0  0
  2  3  1  0  0  0  0
  3  4  1  0  0  0  0
  4  5  4  0  0  0  0
  5  6  2  0  0  0  0
  6  7  4  0  0  0  0
  4  8  4  0  0  0  0
  7  8  4  0  0  0  0
  7  9  1  0  0  0  0
  2 10  1  0  0  0  0
  1 11  1  0  0  0  0
  1 12  1  0  0  0  0
  1 13  1  0  0  0  0
  2 14  1  0  0  0  0
  3 15  1  0  0  0  0
  3 16  1  0  0  0  0
  5 17  1  0  0  0  0
  6 18  1  0  0  0  0
  8 19  1  0  0  0  0
  9 20  1  0  0  0  0
  9 21  1  0  0  0  0
  9 22  1  0  0  0  0
 10 23  1  0  0  0  0
 10 24  1  0  0  0  0
 10 25  1  0  0  0  0
M  CHG  1   1   1
M  END
