 xtb: 6.7.1 (edcfbbe)
          12202406533D

 13 13  0     0  0            999 V2000
    1.1336   -0.0360    0.0506 N   0  0  0  0  0  0  0  0  0  0  0  0
    2.2758   -0.0241    0.0520 C   0  0  0  0  0  0  0  0  0  0  0  0
    3.6855   -0.0127    0.0560 C   0  0  0  0  0  0  0  0  0  0  0  0
    4.4956   -1.0875    0.0580 N   0  0  0  0  0  0  0  0  0  0  0  0
    4.0157   -2.3417    0.0565 O   0  0  0  0  0  0  0  0  0  0  0  0
    5.7838   -0.6874    0.0615 C   0  0  0  0  0  0  0  0  0  0  0  0
    5.7779    0.6936    0.0619 C   0  0  0  0  0  0  0  0  0  0  0  0
    4.4743    1.0816    0.0585 N   0  0  0  0  0  0  0  0  0  0  0  0
    3.9859    2.3285    0.0576 O   0  0  0  0  0  0  0  0  0  0  0  0
    7.1758    1.9373    0.0658 Br  0  0  0  0  0  0  0  0  0  0  0  0
    4.7319   -3.0024    0.0571 H   0  0  0  0  0  0  0  0  0  0  0  0
    6.6230   -1.3569    0.0636 H   0  0  0  0  0  0  0  0  0  0  0  0
    4.7110    2.9856    0.0589 H   0  0  0  0  0  0  0  0  0  0  0  0
  1  2  3  0  0  0  0
  2  3  1  0  0  0  0
  3  4  4  0  0  0  0
  4  5  1  0  0  0  0
  4  6  4  0  0  0  0
  6  7  4  0  0  0  0
  3  8  4  0  0  0  0
  7  8  4  0  0  0  0
  8  9  1  0  0  0  0
  7 10  1  0  0  0  0
  5 11  1  0  0  0  0
  6 12  1  0  0  0  0
  9 13  1  0  0  0  0
M  CHG  1   1   1
M  END
