 xtb: 6.7.1 (edcfbbe)
          12202406543D

 22 22  0     0  0            999 V2000
    1.1800    0.1356   -0.1396 N   0  0  0  0  0  0  0  0  0  0  0  0
    2.3179    0.1142   -0.0974 C   0  0  0  0  0  0  0  0  0  0  0  0
    3.7748    0.1089   -0.0830 C   0  0  0  0  0  0  0  0  0  0  0  0
    4.2790    0.6040   -1.3579 N   0  0  0  0  0  0  0  0  0  0  0  0
    4.2294    1.9185   -1.6012 C   0  0  0  0  0  0  0  0  0  0  0  0
    4.6482    2.4455   -2.8155 C   0  0  0  0  0  0  0  0  0  0  0  0
    4.5797    3.9111   -3.0566 C   0  0  0  0  0  0  0  0  0  0  0  0
    5.1208    1.5533   -3.7770 C   0  0  0  0  0  0  0  0  0  0  0  0
    5.1642    0.1842   -3.5226 C   0  0  0  0  0  0  0  0  0  0  0  0
    4.7232   -0.2543   -2.2799 C   0  0  0  0  0  0  0  0  0  0  0  0
    5.6601   -0.7961   -4.5250 C   0  0  0  0  0  0  0  0  0  0  0  0
    4.1192    0.7493    0.7364 H   0  0  0  0  0  0  0  0  0  0  0  0
    4.1237   -0.9124    0.0971 H   0  0  0  0  0  0  0  0  0  0  0  0
    3.8459    2.5578   -0.8193 H   0  0  0  0  0  0  0  0  0  0  0  0
    3.5443    4.2487   -3.0297 H   0  0  0  0  0  0  0  0  0  0  0  0
    5.1167    4.4526   -2.2797 H   0  0  0  0  0  0  0  0  0  0  0  0
    5.0030    4.1708   -4.0216 H   0  0  0  0  0  0  0  0  0  0  0  0
    5.4555    1.9284   -4.7325 H   0  0  0  0  0  0  0  0  0  0  0  0
    4.7292   -1.3051   -2.0299 H   0  0  0  0  0  0  0  0  0  0  0  0
    6.5229   -1.3341   -4.1348 H   0  0  0  0  0  0  0  0  0  0  0  0
    4.8914   -1.5344   -4.7478 H   0  0  0  0  0  0  0  0  0  0  0  0
    5.9472   -0.3026   -5.4481 H   0  0  0  0  0  0  0  0  0  0  0  0
  1  2  3  0  0  0  0
  2  3  1  0  0  0  0
  3  4  1  0  0  0  0
  4  5  4  0  0  0  0
  5  6  4  0  0  0  0
  6  7  1  0  0  0  0
  6  8  4  0  0  0  0
  8  9  4  0  0  0  0
  4 10  4  0  0  0  0
  9 10  4  0  0  0  0
  9 11  1  0  0  0  0
  3 12  1  0  0  0  0
  3 13  1  0  0  0  0
  5 14  1  0  0  0  0
  7 15  1  0  0  0  0
  7 16  1  0  0  0  0
  7 17  1  0  0  0  0
  8 18  1  0  0  0  0
 10 19  1  0  0  0  0
 11 20  1  0  0  0  0
 11 21  1  0  0  0  0
 11 22  1  0  0  0  0
M  CHG  1   1   1
M  END
