13

N          0.96363       -0.05167        0.05214
C          2.12442       -0.03088        0.05387
C          3.65785       -0.00460        0.05656
N          4.50676       -1.06024        0.05784
O          4.05740       -2.38224        0.05494
C          5.82430       -0.65380        0.06227
C          5.79745        0.71577        0.06238
N          4.46818        1.07729        0.05812
O          3.97893        2.38666        0.05572
Br         7.25709        1.85013        0.06730
H          4.85299       -2.94943        0.05534
H          6.61316       -1.38501        0.06477
H          4.76777        2.96608        0.05682
