 xtb: 6.7.1 (edcfbbe)
          12202406543D

 43 44  0     0  0            999 V2000
   -0.5251    1.1868   -1.2563 C   0  0  0  0  0  0  0  0  0  0  0  0
    0.7554    1.7835   -1.2174 O   0  0  0  0  0  0  0  0  0  0  0  0
    1.3541    1.9750   -0.0263 C   0  0  0  0  0  0  0  0  0  0  0  0
    0.7990    1.6776    1.2173 C   0  0  0  0  0  0  0  0  0  0  0  0
    1.5268    1.9163    2.3696 C   0  0  0  0  0  0  0  0  0  0  0  0
    2.7963    2.4613    2.3122 C   0  0  0  0  0  0  0  0  0  0  0  0
    3.3572    2.7772    1.0765 C   0  0  0  0  0  0  0  0  0  0  0  0
    2.6380    2.5265   -0.0807 C   0  0  0  0  0  0  0  0  0  0  0  0
    4.7423    3.3625    0.9931 C   0  0  0  0  0  0  0  0  0  0  0  0
    4.7647    4.8672    1.0444 N   0  0  0  0  0  0  0  0  0  0  0  0
    4.0847    5.3647    2.2675 C   0  0  0  0  0  0  0  0  0  0  0  0
    4.6797    4.8712    3.6011 C   0  0  0  0  0  0  0  0  0  0  0  0
    5.7097    4.2336    3.6263 O   0  0  0  0  0  0  0  0  0  0  0  0
    3.9231    5.2174    4.8063 C   0  0  0  0  0  0  0  0  0  0  0  0
    2.7589    5.9943    4.8107 C   0  0  0  0  0  0  0  0  0  0  0  0
    2.1132    6.2606    6.0018 C   0  0  0  0  0  0  0  0  0  0  0  0
    2.6074    5.7607    7.1991 C   0  0  0  0  0  0  0  0  0  0  0  0
    3.7608    4.9912    7.2074 C   0  0  0  0  0  0  0  0  0  0  0  0
    4.4145    4.7234    6.0225 C   0  0  0  0  0  0  0  0  0  0  0  0
    6.1662    5.3286    1.0035 C   0  0  0  0  0  0  0  0  0  0  0  0
    4.0565    5.4114   -0.1290 C   0  0  0  0  0  0  0  0  0  0  0  0
   -0.7774    1.1075   -2.3119 H   0  0  0  0  0  0  0  0  0  0  0  0
   -1.2703    1.8083   -0.7510 H   0  0  0  0  0  0  0  0  0  0  0  0
   -0.5131    0.1887   -0.8104 H   0  0  0  0  0  0  0  0  0  0  0  0
   -0.1859    1.2479    1.2948 H   0  0  0  0  0  0  0  0  0  0  0  0
    1.0972    1.6666    3.3271 H   0  0  0  0  0  0  0  0  0  0  0  0
    3.3559    2.6154    3.2222 H   0  0  0  0  0  0  0  0  0  0  0  0
    3.0546    2.7189   -1.0577 H   0  0  0  0  0  0  0  0  0  0  0  0
    5.3496    3.0003    1.8242 H   0  0  0  0  0  0  0  0  0  0  0  0
    5.2154    3.0656    0.0556 H   0  0  0  0  0  0  0  0  0  0  0  0
    4.1269    6.4570    2.2680 H   0  0  0  0  0  0  0  0  0  0  0  0
    3.0403    5.0487    2.2218 H   0  0  0  0  0  0  0  0  0  0  0  0
    2.3520    6.4019    3.8985 H   0  0  0  0  0  0  0  0  0  0  0  0
    1.2177    6.8625    5.9999 H   0  0  0  0  0  0  0  0  0  0  0  0
    2.0926    5.9738    8.1231 H   0  0  0  0  0  0  0  0  0  0  0  0
    4.1488    4.6035    8.1365 H   0  0  0  0  0  0  0  0  0  0  0  0
    5.3149    4.1278    6.0087 H   0  0  0  0  0  0  0  0  0  0  0  0
    6.6454    4.9752    0.0928 H   0  0  0  0  0  0  0  0  0  0  0  0
    6.2006    6.4167    1.0200 H   0  0  0  0  0  0  0  0  0  0  0  0
    6.7106    4.9415    1.8630 H   0  0  0  0  0  0  0  0  0  0  0  0
    4.5512    5.0865   -1.0424 H   0  0  0  0  0  0  0  0  0  0  0  0
    3.0272    5.0574   -0.1446 H   0  0  0  0  0  0  0  0  0  0  0  0
    4.0607    6.4998   -0.1001 H   0  0  0  0  0  0  0  0  0  0  0  0
  1  2  1  0  0  0  0
  2  3  1  0  0  0  0
  3  4  4  0  0  0  0
  4  5  4  0  0  0  0
  5  6  4  0  0  0  0
  6  7  4  0  0  0  0
  3  8  4  0  0  0  0
  7  8  4  0  0  0  0
  7  9  1  0  0  0  0
  9 10  1  0  0  0  0
 10 11  1  0  0  0  0
 11 12  1  0  0  0  0
 12 13  2  0  0  0  0
 12 14  1  0  0  0  0
 14 15  4  0  0  0  0
 15 16  4  0  0  0  0
 16 17  4  0  0  0  0
 17 18  4  0  0  0  0
 14 19  4  0  0  0  0
 18 19  4  0  0  0  0
 10 20  1  0  0  0  0
 10 21  1  0  0  0  0
  1 22  1  0  0  0  0
  1 23  1  0  0  0  0
  1 24  1  0  0  0  0
  4 25  1  0  0  0  0
  5 26  1  0  0  0  0
  6 27  1  0  0  0  0
  8 28  1  0  0  0  0
  9 29  1  0  0  0  0
  9 30  1  0  0  0  0
 11 31  1  0  0  0  0
 11 32  1  0  0  0  0
 15 33  1  0  0  0  0
 16 34  1  0  0  0  0
 17 35  1  0  0  0  0
 18 36  1  0  0  0  0
 19 37  1  0  0  0  0
 20 38  1  0  0  0  0
 20 39  1  0  0  0  0
 20 40  1  0  0  0  0
 21 41  1  0  0  0  0
 21 42  1  0  0  0  0
 21 43  1  0  0  0  0
M  CHG  1   1   1
M  END
