27

C          1.24658        0.03348       -0.28743
C          0.66696       -1.27572       -0.79992
C          0.93683       -2.47107        0.12082
C          0.35921       -2.36197        1.53297
C         -1.11985       -2.31982        1.55714
C         -2.00195       -1.26921        1.62084
N         -3.26148       -1.84496        1.61302
N         -3.25872       -3.16417        1.55890
N         -1.96351       -3.44315        1.53066
C         -1.56631       -4.84838        1.48607
C         -4.53881       -1.14330        1.65415
H          0.74836        0.36301        0.62877
H          1.11382        0.82090       -1.03638
H          2.31771       -0.06342       -0.08445
H         -0.40890       -1.15824       -0.96986
H          1.11172       -1.49118       -1.77918
H          0.54720       -3.37289       -0.36727
H          2.02222       -2.61038        0.20288
H          0.68718       -3.22592        2.12220
H          0.74939       -1.47675        2.04658
H         -1.90911       -0.19990        1.66491
H         -0.98215       -5.02824        0.58023
H         -0.96576       -5.07762        2.37044
H         -2.44834       -5.49559        1.47599
H         -4.56280       -0.49910        2.53745
H         -4.63788       -0.53571        0.75041
H         -5.36742       -1.85546        1.70496
