43

C          0.05290        0.41804       -1.25932
O          0.73783        1.67078       -1.30676
C          1.19618        2.07775       -0.08529
C          0.41442        2.10129        1.06563
C          0.97369        2.52483        2.27071
C          2.30778        2.93714        2.32204
C          3.09035        2.96779        1.15858
C          2.51356        2.53429       -0.04612
C          4.52511        3.43459        1.17479
N          4.75555        4.95743        1.04308
C          4.27375        5.72345        2.31928
C          4.88491        5.25646        3.63862
O          6.01111        4.76580        3.69565
C          4.06904        5.35109        4.87978
C          2.99730        6.24214        5.00741
C          2.23249        6.24283        6.17696
C          2.53588        5.36393        7.21654
C          3.61255        4.48818        7.09940
C          4.38161        4.48376        5.93623
C          6.25459        5.18766        0.82191
C          4.01451        5.52087       -0.16395
H         -0.03428        0.04698       -2.28493
H         -0.95774        0.53744       -0.85771
H          0.61608       -0.32389       -0.68111
H         -0.62833        1.79711        1.04201
H          0.36699        2.52142        3.17478
H          2.71822        3.21544        3.28892
H          3.09035        2.51516       -0.96924
H          5.02165        3.09092        2.08852
H          5.06494        2.96959        0.33916
H          4.53067        6.77796        2.16772
H          3.18566        5.61985        2.33703
H          2.73733        6.95670        4.23233
H          1.39860        6.93405        6.28711
H          1.93812        5.36849        8.12636
H          3.85443        3.81082        7.91627
H          5.22090        3.79330        5.86274
H          6.50389        4.85188       -0.19006
H          6.46193        6.25639        0.92448
H          6.83100        4.60136        1.53887
H          4.29078        4.93808       -1.04754
H          2.93780        5.46773        0.01794
H          4.31400        6.56588       -0.29121
