27

C          1.25410        0.22627       -0.03300
C          0.11131        1.21333        0.12442
S          1.31968       -0.54462       -1.67993
C          1.36689        0.81298       -2.75721
N          2.28577        1.72518       -2.50898
C          2.57566        2.94970       -3.26027
C          1.66339        4.05931       -2.78210
N          0.54511        0.90068       -3.79016
C         -0.44696       -0.11577       -4.19621
C         -1.46440        0.53221       -5.11611
H          1.13854       -0.57862        0.70040
H          2.20954        0.71583        0.17852
H          0.22033        2.07449       -0.54186
H         -0.85840        0.74292       -0.06599
H          0.09787        1.59871        1.15000
H          2.88816        1.50751       -1.72325
H          3.62225        3.21447       -3.07988
H          2.45912        2.76723       -4.33268
H          1.78912        4.23066       -1.70803
H          1.88716        4.99190       -3.30863
H          0.61234        3.80883       -2.95727
H          0.62516        1.71201       -4.38372
H          0.08037       -0.91856       -4.72172
H         -0.95894       -0.52363       -3.32042
H         -0.97795        0.98746       -5.98484
H         -2.18550       -0.20907       -5.47356
H         -2.01201        1.32050       -4.58943
