54

C          1.48575        0.47812        0.99536
C          0.12124       -0.16856        1.07552
C         -0.71065       -0.09601       -0.20738
C         -2.07269       -0.78500       -0.07680
C         -3.04607       -0.12911        0.90881
C         -3.52037        1.27834        0.52815
C         -4.27554        1.38649       -0.80225
C         -5.47244        0.44200       -0.96494
C         -6.55337        0.55318        0.11539
C         -7.25932        1.90962        0.20166
C         -7.99727        2.34993       -1.06519
C         -9.08310        1.37930       -1.50487
O          2.23969        0.58141        1.95150
O          1.76800        0.98240       -0.23882
C          2.96053        1.78252       -0.27179
C          3.07111        2.46946       -1.62879
N          1.77382        3.10613       -1.98391
C          0.98068        2.52423       -2.91575
C         -0.25768        3.06789       -3.23332
C         -0.68268        4.21767       -2.58250
C          0.14269        4.80855       -1.63458
C          1.37855        4.23704       -1.35277
H          0.26937       -1.21599        1.35939
H         -0.40861        0.34511        1.88436
H         -0.84269        0.94669       -0.51755
H         -0.15798       -0.58836       -1.01793
H         -2.53546       -0.84060       -1.06863
H         -1.91147       -1.82364        0.23833
H         -3.91597       -0.78638        1.02108
H         -2.59082       -0.08434        1.90450
H         -4.16389        1.65343        1.33332
H         -2.66216        1.96018        0.49845
H         -4.61199        2.42290       -0.92708
H         -3.57639        1.20342       -1.62730
H         -5.91977        0.61274       -1.95111
H         -5.11244       -0.59349       -0.98604
H         -7.29845       -0.23238       -0.05790
H         -6.11841        0.32759        1.09587
H         -7.97959        1.86723        1.02875
H         -6.53386        2.68503        0.47385
H         -8.46129        3.32456       -0.87089
H         -7.28883        2.50348       -1.88628
H         -9.78620        1.17953       -0.69001
H         -9.64721        1.80025       -2.34329
H         -8.65904        0.42734       -1.83778
H          2.91410        2.54153        0.51841
H          3.83731        1.14575       -0.10876
H          3.84129        3.24786       -1.63216
H          3.31200        1.74289       -2.41210
H          1.33914        1.61621       -3.39262
H         -0.89089        2.59303       -3.97986
H         -1.65473        4.65183       -2.81370
H         -0.17871        5.70886       -1.11485
H          2.05008        4.66629       -0.61467
