27

C          1.82151        0.84558        0.30891
C          0.76812        0.47253       -0.72398
C          1.33318       -0.51695       -1.74434
N          0.24267       -1.26110       -2.53366
C         -0.75448       -0.29646       -3.16256
C         -0.48757       -2.29596       -1.64521
C          0.10953       -3.63243       -2.03646
C          0.31458       -3.48597       -3.52588
C          0.91823       -2.10147       -3.65433
H          2.11877       -0.03246        0.89222
H          1.42447        1.59230        1.00350
H          2.71480        1.26063       -0.16783
H         -0.10351        0.06969       -0.19960
H          0.44071        1.38456       -1.23687
H          1.95225        0.01424       -2.47768
H          1.94651       -1.28563       -1.25937
H         -1.33187        0.18265       -2.36772
H         -0.19691        0.44442       -3.74266
H         -1.42368       -0.86705       -3.81409
H         -1.55513       -2.25502       -1.88736
H         -0.33820       -2.06144       -0.58841
H          1.06883       -3.78684       -1.52828
H         -0.54847       -4.46811       -1.78247
H          0.96976       -4.25987       -3.93591
H         -0.64498       -3.53669       -4.05334
H          1.99589       -2.12693       -3.45850
H          0.73378       -1.63491       -4.62708
