 xtb: 6.7.1 (edcfbbe)
          12202406543D

 42 41  0     0  0            999 V2000
    2.0093   -0.4439   -0.5780 C   0  0  0  0  0  0  0  0  0  0  0  0
    1.1096   -1.6132   -0.9592 C   0  0  0  0  0  0  0  0  0  0  0  0
    1.2110   -2.7934    0.0087 C   0  0  0  0  0  0  0  0  0  0  0  0
    0.7762   -2.4883    1.4439 C   0  0  0  0  0  0  0  0  0  0  0  0
   -0.6665   -2.0014    1.5966 C   0  0  0  0  0  0  0  0  0  0  0  0
   -1.7341   -2.9303    1.0125 C   0  0  0  0  0  0  0  0  0  0  0  0
   -1.7314   -4.3496    1.5937 C   0  0  0  0  0  0  0  0  0  0  0  0
   -2.1044   -4.4150    3.0805 C   0  0  0  0  0  0  0  0  0  0  0  0
   -3.4690   -4.9408    3.3879 N   0  0  0  0  0  0  0  0  0  0  0  0
   -3.6784   -6.3372    2.8993 C   0  0  0  0  0  0  0  0  0  0  0  0
   -2.4880   -7.2903    3.0543 C   0  0  0  0  0  0  0  0  0  0  0  0
   -2.0389   -7.2990    4.3901 O   0  0  0  0  0  0  0  0  0  0  0  0
   -3.6423   -4.9145    4.8567 C   0  0  0  0  0  0  0  0  0  0  0  0
   -4.4987   -4.0741    2.7864 C   0  0  0  0  0  0  0  0  0  0  0  0
    1.6908    0.0152    0.3546 H   0  0  0  0  0  0  0  0  0  0  0  0
    1.9807    0.3171   -1.3536 H   0  0  0  0  0  0  0  0  0  0  0  0
    3.0385   -0.7771   -0.4655 H   0  0  0  0  0  0  0  0  0  0  0  0
    0.0754   -1.2701   -1.0278 H   0  0  0  0  0  0  0  0  0  0  0  0
    1.3982   -1.9688   -1.9508 H   0  0  0  0  0  0  0  0  0  0  0  0
    0.6215   -3.6238   -0.3876 H   0  0  0  0  0  0  0  0  0  0  0  0
    2.2510   -3.1252    0.0398 H   0  0  0  0  0  0  0  0  0  0  0  0
    0.9286   -3.3843    2.0513 H   0  0  0  0  0  0  0  0  0  0  0  0
    1.4307   -1.7189    1.8541 H   0  0  0  0  0  0  0  0  0  0  0  0
   -0.8556   -1.8314    2.6599 H   0  0  0  0  0  0  0  0  0  0  0  0
   -0.7671   -1.0345    1.1034 H   0  0  0  0  0  0  0  0  0  0  0  0
   -2.7111   -2.4636    1.1563 H   0  0  0  0  0  0  0  0  0  0  0  0
   -1.5730   -3.0115   -0.0624 H   0  0  0  0  0  0  0  0  0  0  0  0
   -2.3982   -4.9723    0.9968 H   0  0  0  0  0  0  0  0  0  0  0  0
   -0.7295   -4.7590    1.4676 H   0  0  0  0  0  0  0  0  0  0  0  0
   -1.3996   -5.0370    3.6323 H   0  0  0  0  0  0  0  0  0  0  0  0
   -2.0508   -3.4091    3.4999 H   0  0  0  0  0  0  0  0  0  0  0  0
   -4.5260   -6.7454    3.4529 H   0  0  0  0  0  0  0  0  0  0  0  0
   -3.9412   -6.3115    1.8410 H   0  0  0  0  0  0  0  0  0  0  0  0
   -2.8469   -8.2819    2.7525 H   0  0  0  0  0  0  0  0  0  0  0  0
   -1.6722   -7.0071    2.3765 H   0  0  0  0  0  0  0  0  0  0  0  0
   -1.4703   -8.0607    4.5416 H   0  0  0  0  0  0  0  0  0  0  0  0
   -3.4347   -3.9182    5.2412 H   0  0  0  0  0  0  0  0  0  0  0  0
   -4.6648   -5.1814    5.1165 H   0  0  0  0  0  0  0  0  0  0  0  0
   -2.9635   -5.6292    5.3172 H   0  0  0  0  0  0  0  0  0  0  0  0
   -4.4189   -3.0691    3.1968 H   0  0  0  0  0  0  0  0  0  0  0  0
   -4.3765   -4.0227    1.7072 H   0  0  0  0  0  0  0  0  0  0  0  0
   -5.4912   -4.4630    3.0075 H   0  0  0  0  0  0  0  0  0  0  0  0
  1  2  1  0  0  0  0
  2  3  1  0  0  0  0
  3  4  1  0  0  0  0
  4  5  1  0  0  0  0
  5  6  1  0  0  0  0
  6  7  1  0  0  0  0
  7  8  1  0  0  0  0
  8  9  1  0  0  0  0
  9 10  1  0  0  0  0
 10 11  1  0  0  0  0
 11 12  1  0  0  0  0
  9 13  1  0  0  0  0
  9 14  1  0  0  0  0
  1 15  1  0  0  0  0
  1 16  1  0  0  0  0
  1 17  1  0  0  0  0
  2 18  1  0  0  0  0
  2 19  1  0  0  0  0
  3 20  1  0  0  0  0
  3 21  1  0  0  0  0
  4 22  1  0  0  0  0
  4 23  1  0  0  0  0
  5 24  1  0  0  0  0
  5 25  1  0  0  0  0
  6 26  1  0  0  0  0
  6 27  1  0  0  0  0
  7 28  1  0  0  0  0
  7 29  1  0  0  0  0
  8 30  1  0  0  0  0
  8 31  1  0  0  0  0
 10 32  1  0  0  0  0
 10 33  1  0  0  0  0
 11 34  1  0  0  0  0
 11 35  1  0  0  0  0
 12 36  1  0  0  0  0
 13 37  1  0  0  0  0
 13 38  1  0  0  0  0
 13 39  1  0  0  0  0
 14 40  1  0  0  0  0
 14 41  1  0  0  0  0
 14 42  1  0  0  0  0
M  CHG  1   1   1
M  END
