34

C          1.07730        0.54653       -0.65347
C          0.44006       -0.27426        0.45578
C          0.86411        0.16743        1.85782
C          0.43863        1.57591        2.26932
C         -1.02077        1.83910        2.24006
C         -1.74052        2.81870        1.59466
N         -3.04967        2.65934        2.01611
N         -3.22978        1.63992        2.83552
N         -2.00352        1.15573        2.97568
C         -1.83296        0.00732        3.86056
C         -4.26072        3.44464        1.74961
C         -4.17839        4.53052        0.87527
C         -5.31349        5.31133        0.63940
C         -6.51807        5.00858        1.27378
C         -6.59714        3.92115        2.14277
C         -5.46886        3.13351        2.38260
H          0.72889        1.58301       -0.63646
H          0.81801        0.12267       -1.62897
H          2.16847        0.54549       -0.56499
H         -0.65059       -0.24618        0.35694
H          0.73722       -1.32197        0.32374
H          0.48218       -0.56340        2.57790
H          1.95786        0.10715        1.93100
H          0.78450        1.76968        3.29175
H          0.93749        2.31527        1.63164
H         -1.47196        3.62098        0.93303
H         -1.74688       -0.89664        3.25157
H         -0.93536        0.14229        4.46908
H         -2.69648       -0.09061        4.52530
H         -3.26253        4.79912        0.36408
H         -5.26279        6.16199       -0.03866
H         -7.39894        5.62269        1.09127
H         -7.53998        3.69179        2.63649
H         -5.56595        2.30038        3.07115
