 xtb: 6.7.1 (edcfbbe)
          12202406543D

 32 31  0     0  0            999 V2000
    0.7546    0.2711   -0.1494 C   0  0  0  0  0  0  0  0  0  0  0  0
    0.7399   -1.2324   -0.3967 C   0  0  0  0  0  0  0  0  0  0  0  0
    1.1718   -2.0508    0.8224 C   0  0  0  0  0  0  0  0  0  0  0  0
    0.2983   -1.8600    2.0647 C   0  0  0  0  0  0  0  0  0  0  0  0
   -1.1808   -2.1879    1.8703 C   0  0  0  0  0  0  0  0  0  0  0  0
   -1.4561   -3.6285    1.4371 C   0  0  0  0  0  0  0  0  0  0  0  0
   -0.9516   -4.9177    2.6279 P   0  0  0  0  0  0  0  0  0  0  0  0
   -1.2809   -4.4132    4.3343 C   0  0  0  0  0  0  0  0  0  0  0  0
   -1.9617   -6.3797    2.2799 C   0  0  0  0  0  0  0  0  0  0  0  0
    0.7776   -5.4325    2.4628 C   0  0  0  0  0  0  0  0  0  0  0  0
   -0.0083    0.5667    0.5665 H   0  0  0  0  0  0  0  0  0  0  0  0
    0.5644    0.8018   -1.0783 H   0  0  0  0  0  0  0  0  0  0  0  0
    1.7245    0.5852    0.2281 H   0  0  0  0  0  0  0  0  0  0  0  0
   -0.2552   -1.5387   -0.7262 H   0  0  0  0  0  0  0  0  0  0  0  0
    1.4309   -1.4602   -1.2105 H   0  0  0  0  0  0  0  0  0  0  0  0
    1.2007   -3.1077    0.5431 H   0  0  0  0  0  0  0  0  0  0  0  0
    2.1911   -1.7615    1.0858 H   0  0  0  0  0  0  0  0  0  0  0  0
    0.7000   -2.4747    2.8771 H   0  0  0  0  0  0  0  0  0  0  0  0
    0.3719   -0.8212    2.3867 H   0  0  0  0  0  0  0  0  0  0  0  0
   -1.7146   -1.9798    2.8001 H   0  0  0  0  0  0  0  0  0  0  0  0
   -1.5968   -1.5280    1.1085 H   0  0  0  0  0  0  0  0  0  0  0  0
   -2.5330   -3.7634    1.2915 H   0  0  0  0  0  0  0  0  0  0  0  0
   -0.9628   -3.8491    0.4872 H   0  0  0  0  0  0  0  0  0  0  0  0
   -2.3268   -4.1246    4.4330 H   0  0  0  0  0  0  0  0  0  0  0  0
   -1.0784   -5.2525    4.9989 H   0  0  0  0  0  0  0  0  0  0  0  0
   -0.6483   -3.5738    4.6164 H   0  0  0  0  0  0  0  0  0  0  0  0
   -1.8260   -6.6847    1.2429 H   0  0  0  0  0  0  0  0  0  0  0  0
   -1.6630   -7.1985    2.9330 H   0  0  0  0  0  0  0  0  0  0  0  0
   -3.0135   -6.1540    2.4494 H   0  0  0  0  0  0  0  0  0  0  0  0
    0.9552   -5.7793    1.4454 H   0  0  0  0  0  0  0  0  0  0  0  0
    1.4589   -4.6149    2.6856 H   0  0  0  0  0  0  0  0  0  0  0  0
    0.9656   -6.2530    3.1551 H   0  0  0  0  0  0  0  0  0  0  0  0
  1  2  1  0  0  0  0
  2  3  1  0  0  0  0
  3  4  1  0  0  0  0
  4  5  1  0  0  0  0
  5  6  1  0  0  0  0
  6  7  1  0  0  0  0
  7  8  1  0  0  0  0
  7  9  1  0  0  0  0
  7 10  1  0  0  0  0
  1 11  1  0  0  0  0
  1 12  1  0  0  0  0
  1 13  1  0  0  0  0
  2 14  1  0  0  0  0
  2 15  1  0  0  0  0
  3 16  1  0  0  0  0
  3 17  1  0  0  0  0
  4 18  1  0  0  0  0
  4 19  1  0  0  0  0
  5 20  1  0  0  0  0
  5 21  1  0  0  0  0
  6 22  1  0  0  0  0
  6 23  1  0  0  0  0
  8 24  1  0  0  0  0
  8 25  1  0  0  0  0
  8 26  1  0  0  0  0
  9 27  1  0  0  0  0
  9 28  1  0  0  0  0
  9 29  1  0  0  0  0
 10 30  1  0  0  0  0
 10 31  1  0  0  0  0
 10 32  1  0  0  0  0
M  CHG  1   1   1
M  END
