 xtb: 6.7.1 (edcfbbe)
          12202406543D

 36 37  0     0  0            999 V2000
    0.7455    0.7445    1.0847 C   0  0  0  0  0  0  0  0  0  0  0  0
   -0.3114    0.0974    1.5358 C   0  0  0  0  0  0  0  0  0  0  0  0
   -1.3827   -0.4796    0.6453 C   0  0  0  0  0  0  0  0  0  0  0  0
   -1.8004   -1.7797    1.1282 N   0  0  0  0  0  0  0  0  0  0  0  0
   -2.8162   -1.9444    1.9618 C   0  0  0  0  0  0  0  0  0  0  0  0
   -2.9270   -3.2100    2.3553 N   0  0  0  0  0  0  0  0  0  0  0  0
   -1.9041   -3.9198    1.7566 C   0  0  0  0  0  0  0  0  0  0  0  0
   -1.1753   -3.0061    0.9656 C   0  0  0  0  0  0  0  0  0  0  0  0
   -0.0640   -3.4227    0.2203 C   0  0  0  0  0  0  0  0  0  0  0  0
    0.7493   -2.5156   -0.6428 C   0  0  0  0  0  0  0  0  0  0  0  0
    0.2541   -4.7676    0.3241 C   0  0  0  0  0  0  0  0  0  0  0  0
   -0.4690   -5.6672    1.1059 C   0  0  0  0  0  0  0  0  0  0  0  0
   -1.5634   -5.2632    1.8398 C   0  0  0  0  0  0  0  0  0  0  0  0
   -3.8078   -3.7159    3.3972 C   0  0  0  0  0  0  0  0  0  0  0  0
   -3.0605   -3.6139    4.7500 C   0  0  0  0  0  0  0  0  0  0  0  0
   -2.4716   -2.3028    4.8624 C   0  0  0  0  0  0  0  0  0  0  0  0
   -2.0070   -1.2597    4.8247 N   0  0  0  0  0  0  0  0  0  0  0  0
   -5.1279   -2.9563    3.4322 C   0  0  0  0  0  0  0  0  0  0  0  0
    0.9217    0.8965    0.0320 H   0  0  0  0  0  0  0  0  0  0  0  0
    1.4698    1.1708    1.7554 H   0  0  0  0  0  0  0  0  0  0  0  0
   -0.4840   -0.0306    2.5959 H   0  0  0  0  0  0  0  0  0  0  0  0
   -2.2587    0.1767    0.6665 H   0  0  0  0  0  0  0  0  0  0  0  0
   -1.0361   -0.5601   -0.3844 H   0  0  0  0  0  0  0  0  0  0  0  0
   -3.4667   -1.1485    2.2690 H   0  0  0  0  0  0  0  0  0  0  0  0
    0.1622   -2.1555   -1.4868 H   0  0  0  0  0  0  0  0  0  0  0  0
    1.1122   -1.6599   -0.0767 H   0  0  0  0  0  0  0  0  0  0  0  0
    1.6055   -3.0526   -1.0400 H   0  0  0  0  0  0  0  0  0  0  0  0
    1.1036   -5.1374   -0.2284 H   0  0  0  0  0  0  0  0  0  0  0  0
   -0.1616   -6.7002    1.1354 H   0  0  0  0  0  0  0  0  0  0  0  0
   -2.1226   -5.9604    2.4412 H   0  0  0  0  0  0  0  0  0  0  0  0
   -3.9991   -4.7696    3.1708 H   0  0  0  0  0  0  0  0  0  0  0  0
   -3.7554   -3.7824    5.5747 H   0  0  0  0  0  0  0  0  0  0  0  0
   -2.2595   -4.3565    4.8109 H   0  0  0  0  0  0  0  0  0  0  0  0
   -5.5673   -2.9020    2.4387 H   0  0  0  0  0  0  0  0  0  0  0  0
   -5.8275   -3.4805    4.0782 H   0  0  0  0  0  0  0  0  0  0  0  0
   -4.9998   -1.9500    3.8248 H   0  0  0  0  0  0  0  0  0  0  0  0
  1  2  2  0  0  0  0
  2  3  1  0  0  0  0
  3  4  1  0  0  0  0
  4  5  4  0  0  0  0
  5  6  4  0  0  0  0
  6  7  1  0  0  0  0
  4  8  1  0  0  0  0
  7  8  4  0  0  0  0
  8  9  4  0  0  0  0
  9 10  1  0  0  0  0
  9 11  4  0  0  0  0
 11 12  4  0  0  0  0
  7 13  4  0  0  0  0
 12 13  4  0  0  0  0
  6 14  1  0  0  0  0
 14 15  1  0  0  0  0
 15 16  1  0  0  0  0
 16 17  3  0  0  0  0
 14 18  1  0  0  0  0
  1 19  1  0  0  0  0
  1 20  1  0  0  0  0
  2 21  1  0  0  0  0
  3 22  1  0  0  0  0
  3 23  1  0  0  0  0
  5 24  1  0  0  0  0
 10 25  1  0  0  0  0
 10 26  1  0  0  0  0
 10 27  1  0  0  0  0
 11 28  1  0  0  0  0
 12 29  1  0  0  0  0
 13 30  1  0  0  0  0
 14 31  1  0  0  0  0
 15 32  1  0  0  0  0
 15 33  1  0  0  0  0
 18 34  1  0  0  0  0
 18 35  1  0  0  0  0
 18 36  1  0  0  0  0
M  CHG  1   1   1
M  END
