 xtb: 6.7.1 (edcfbbe)
          12202406543D

 22 22  0     0  0            999 V2000
    1.1815   -0.6620    0.2325 N   0  0  0  0  0  0  0  0  0  0  0  0
    2.2728   -0.3653    0.0728 C   0  0  0  0  0  0  0  0  0  0  0  0
    3.6802   -0.0754   -0.0535 C   0  0  0  0  0  0  0  0  0  0  0  0
    4.3478    0.0717    1.3229 C   0  0  0  0  0  0  0  0  0  0  0  0
    3.9184   -1.0052    2.3307 C   0  0  0  0  0  0  0  0  0  0  0  0
    4.1852   -2.3535    1.8504 N   0  0  0  0  0  0  0  0  0  0  0  0
    5.4491   -2.7965    1.8173 C   0  0  0  0  0  0  0  0  0  0  0  0
    5.7532   -4.0559    1.3467 C   0  0  0  0  0  0  0  0  0  0  0  0
    4.7258   -4.8806    0.9022 C   0  0  0  0  0  0  0  0  0  0  0  0
    3.4226   -4.4043    0.9482 C   0  0  0  0  0  0  0  0  0  0  0  0
    3.1821   -3.1322    1.4294 C   0  0  0  0  0  0  0  0  0  0  0  0
    4.1399   -0.8821   -0.6340 H   0  0  0  0  0  0  0  0  0  0  0  0
    3.7989    0.8506   -0.6204 H   0  0  0  0  0  0  0  0  0  0  0  0
    5.4308    0.0628    1.1898 H   0  0  0  0  0  0  0  0  0  0  0  0
    4.0739    1.0343    1.7570 H   0  0  0  0  0  0  0  0  0  0  0  0
    4.4603   -0.8526    3.2674 H   0  0  0  0  0  0  0  0  0  0  0  0
    2.8490   -0.9115    2.5282 H   0  0  0  0  0  0  0  0  0  0  0  0
    6.2164   -2.1290    2.1819 H   0  0  0  0  0  0  0  0  0  0  0  0
    6.7793   -4.3875    1.3336 H   0  0  0  0  0  0  0  0  0  0  0  0
    4.9377   -5.8719    0.5327 H   0  0  0  0  0  0  0  0  0  0  0  0
    2.5937   -5.0100    0.6177 H   0  0  0  0  0  0  0  0  0  0  0  0
    2.1806   -2.7273    1.4711 H   0  0  0  0  0  0  0  0  0  0  0  0
  1  2  3  0  0  0  0
  2  3  1  0  0  0  0
  3  4  1  0  0  0  0
  4  5  1  0  0  0  0
  5  6  1  0  0  0  0
  6  7  4  0  0  0  0
  7  8  4  0  0  0  0
  8  9  4  0  0  0  0
  9 10  4  0  0  0  0
  6 11  4  0  0  0  0
 10 11  4  0  0  0  0
  3 12  1  0  0  0  0
  3 13  1  0  0  0  0
  4 14  1  0  0  0  0
  4 15  1  0  0  0  0
  5 16  1  0  0  0  0
  5 17  1  0  0  0  0
  7 18  1  0  0  0  0
  8 19  1  0  0  0  0
  9 20  1  0  0  0  0
 10 21  1  0  0  0  0
 11 22  1  0  0  0  0
M  CHG  1   1   1
M  END
