 xtb: 6.7.1 (edcfbbe)
          12202406543D

 28 28  0     0  0            999 V2000
    0.9381   -0.1702    0.2342 C   0  0  0  0  0  0  0  0  0  0  0  0
   -0.1495   -0.3876    0.5076 N   0  0  0  0  0  0  0  0  0  0  0  0
    2.3396    0.0095   -0.0558 C   0  0  0  0  0  0  0  0  0  0  0  0
    3.1910   -0.0774    1.2206 C   0  0  0  0  0  0  0  0  0  0  0  0
    2.8035   -1.2507    2.1319 C   0  0  0  0  0  0  0  0  0  0  0  0
    2.8758   -2.5319    1.4458 N   0  0  0  0  0  0  0  0  0  0  0  0
    4.0756   -3.0613    1.1630 C   0  0  0  0  0  0  0  0  0  0  0  0
    4.1915   -4.2572    0.4980 C   0  0  0  0  0  0  0  0  0  0  0  0
    3.0459   -4.9588    0.1049 C   0  0  0  0  0  0  0  0  0  0  0  0
    1.8134   -4.3754    0.4122 C   0  0  0  0  0  0  0  0  0  0  0  0
    1.7584   -3.1731    1.0782 C   0  0  0  0  0  0  0  0  0  0  0  0
    3.1362   -6.2342   -0.6508 C   0  0  0  0  0  0  0  0  0  0  0  0
    3.1325   -5.9393   -2.1590 C   0  0  0  0  0  0  0  0  0  0  0  0
    2.6346   -0.7563   -0.7809 H   0  0  0  0  0  0  0  0  0  0  0  0
    2.4801    0.9852   -0.5263 H   0  0  0  0  0  0  0  0  0  0  0  0
    4.2422   -0.1447    0.9358 H   0  0  0  0  0  0  0  0  0  0  0  0
    3.0616    0.8341    1.8055 H   0  0  0  0  0  0  0  0  0  0  0  0
    3.4776   -1.2735    2.9919 H   0  0  0  0  0  0  0  0  0  0  0  0
    1.7834   -1.1091    2.4940 H   0  0  0  0  0  0  0  0  0  0  0  0
    4.9453   -2.5110    1.4906 H   0  0  0  0  0  0  0  0  0  0  0  0
    5.1723   -4.6563    0.2913 H   0  0  0  0  0  0  0  0  0  0  0  0
    0.8930   -4.8658    0.1365 H   0  0  0  0  0  0  0  0  0  0  0  0
    0.8136   -2.7082    1.3204 H   0  0  0  0  0  0  0  0  0  0  0  0
    4.0560   -6.7601   -0.3942 H   0  0  0  0  0  0  0  0  0  0  0  0
    2.2843   -6.8719   -0.4137 H   0  0  0  0  0  0  0  0  0  0  0  0
    3.9784   -5.3134   -2.4325 H   0  0  0  0  0  0  0  0  0  0  0  0
    3.2034   -6.8734   -2.7073 H   0  0  0  0  0  0  0  0  0  0  0  0
    2.2147   -5.4359   -2.4519 H   0  0  0  0  0  0  0  0  0  0  0  0
  1  2  3  0  0  0  0
  1  3  1  0  0  0  0
  3  4  1  0  0  0  0
  4  5  1  0  0  0  0
  5  6  1  0  0  0  0
  6  7  4  0  0  0  0
  7  8  4  0  0  0  0
  8  9  4  0  0  0  0
  9 10  4  0  0  0  0
  6 11  4  0  0  0  0
 10 11  4  0  0  0  0
  9 12  1  0  0  0  0
 12 13  1  0  0  0  0
  3 14  1  0  0  0  0
  3 15  1  0  0  0  0
  4 16  1  0  0  0  0
  4 17  1  0  0  0  0
  5 18  1  0  0  0  0
  5 19  1  0  0  0  0
  7 20  1  0  0  0  0
  8 21  1  0  0  0  0
 10 22  1  0  0  0  0
 11 23  1  0  0  0  0
 12 24  1  0  0  0  0
 12 25  1  0  0  0  0
 13 26  1  0  0  0  0
 13 27  1  0  0  0  0
 13 28  1  0  0  0  0
M  CHG  1   1   1
M  END
