 xtb: 6.7.1 (edcfbbe)
          12202406543D

 20 20  0     0  0            999 V2000
    1.6190   -0.3083    1.0551 O   0  0  0  0  0  0  0  0  0  0  0  0
    2.5583    0.0317    0.4366 C   0  0  0  0  0  0  0  0  0  0  0  0
    3.2698    1.3160    0.3851 C   0  0  0  0  0  0  0  0  0  0  0  0
    3.1647    1.9986   -0.9970 C   0  0  0  0  0  0  0  0  0  0  0  0
    4.2671    1.5910   -1.9673 C   0  0  0  0  0  0  0  0  0  0  0  0
    4.1949    0.1375   -2.4272 C   0  0  0  0  0  0  0  0  0  0  0  0
    4.3729   -0.8757   -1.3032 C   0  0  0  0  0  0  0  0  0  0  0  0
    3.1165   -1.0800   -0.5360 N   0  0  0  0  0  0  0  0  0  0  0  0
    4.3226    1.1871    0.6435 H   0  0  0  0  0  0  0  0  0  0  0  0
    2.8096    1.9513    1.1448 H   0  0  0  0  0  0  0  0  0  0  0  0
    3.2419    3.0721   -0.8290 H   0  0  0  0  0  0  0  0  0  0  0  0
    2.1814    1.8128   -1.4316 H   0  0  0  0  0  0  0  0  0  0  0  0
    5.2407    1.7794   -1.5122 H   0  0  0  0  0  0  0  0  0  0  0  0
    4.1953    2.2288   -2.8484 H   0  0  0  0  0  0  0  0  0  0  0  0
    4.9902   -0.0287   -3.1538 H   0  0  0  0  0  0  0  0  0  0  0  0
    3.2490   -0.0463   -2.9418 H   0  0  0  0  0  0  0  0  0  0  0  0
    5.1614   -0.5640   -0.6167 H   0  0  0  0  0  0  0  0  0  0  0  0
    4.6558   -1.8427   -1.7252 H   0  0  0  0  0  0  0  0  0  0  0  0
    3.1860   -1.9237    0.0496 H   0  0  0  0  0  0  0  0  0  0  0  0
    2.3502   -1.2645   -1.2000 H   0  0  0  0  0  0  0  0  0  0  0  0
  1  2  2  0  0  0  0
  2  3  1  0  0  0  0
  3  4  1  0  0  0  0
  4  5  1  0  0  0  0
  5  6  1  0  0  0  0
  6  7  1  0  0  0  0
  2  8  1  0  0  0  0
  7  8  1  0  0  0  0
  3  9  1  0  0  0  0
  3 10  1  0  0  0  0
  4 11  1  0  0  0  0
  4 12  1  0  0  0  0
  5 13  1  0  0  0  0
  5 14  1  0  0  0  0
  6 15  1  0  0  0  0
  6 16  1  0  0  0  0
  7 17  1  0  0  0  0
  7 18  1  0  0  0  0
  8 19  1  0  0  0  0
  8 20  1  0  0  0  0
M  CHG  1   1   1
M  END
