69

C          1.09457       -0.43762       -0.66139
C          1.10579       -1.31465        0.58142
C          1.44446       -0.55017        1.86419
C          0.47657        0.57982        2.23297
C         -0.98261        0.15478        2.43024
C         -1.22037       -0.86184        3.55283
C         -0.82724       -0.38897        4.95776
C         -1.54674        0.87319        5.44911
C         -3.07459        0.76553        5.52488
C         -3.60535       -0.28649        6.50633
C         -3.23601       -0.05168        7.97601
C         -3.74646        1.26511        8.57298
C         -5.27225        1.41615        8.60700
C         -6.01396        0.37916        9.45992
C         -5.58692        0.31176       10.93128
C         -5.72632        1.62379       11.71085
C         -7.16558        2.11547       11.90194
C         -8.03312        1.23364       12.79972
N         -7.48256        1.18803       14.17835
C         -7.63900        2.25532       14.99566
C         -7.10911        2.25025       16.27885
C         -6.42526        1.12769       16.72741
C         -6.29535        0.01813       15.89417
C         -6.83513        0.07826       14.60966
C         -5.53261       -1.19057       16.35167
H          0.28860        0.30111       -0.62472
H          0.93946       -1.05205       -1.55407
H          2.04549        0.09218       -0.77649
H          0.14016       -1.82201        0.68071
H          1.85505       -2.10342        0.44237
H          1.50570       -1.26515        2.69292
H          2.44974       -0.12182        1.76295
H          0.84242        1.06741        3.14422
H          0.51102        1.35253        1.45576
H         -1.58383        1.05227        2.61669
H         -1.36987       -0.26329        1.49379
H         -2.28006       -1.14281        3.54803
H         -0.67399       -1.78582        3.33034
H         -1.00695       -1.20843        5.66354
H          0.25364       -0.20812        4.99036
H         -1.14848        1.14046        6.43476
H         -1.28944        1.71465        4.79522
H         -3.48053        1.74891        5.78852
H         -3.47532        0.54617        4.52857
H         -4.69624       -0.33375        6.40949
H         -3.24354       -1.27789        6.21004
H         -3.61454       -0.89224        8.56925
H         -2.14591       -0.08465        8.08677
H         -3.34656        1.36483        9.58871
H         -3.32483        2.10852        8.01428
H         -5.51383        2.42186        8.97065
H         -5.66850        1.37586        7.58575
H         -7.08904        0.58644        9.40271
H         -5.88343       -0.61472        9.01545
H         -6.16485       -0.47708       11.42528
H         -4.54178       -0.01459       10.98762
H         -5.24856        1.50175       12.68955
H         -5.15353        2.41174       11.20906
H         -7.12255        3.12638       12.32534
H         -7.65618        2.21880       10.92783
H         -9.04795        1.64111       12.88004
H         -8.12161        0.21184       12.41860
H         -8.17930        3.11383       14.60618
H         -7.22257        3.11763       16.92519
H         -5.99673        1.12226       17.72990
H         -6.74475       -0.74910       13.91179
H         -4.45793       -1.02211       16.23147
H         -5.74550       -1.40541       17.40407
H         -5.81459       -2.07691       15.77381
