41

O          1.22292       -0.48474       -0.21245
C          2.41517       -0.34306        0.07724
C          2.89093       -0.42017        1.45348
C          2.17052       -0.86413        2.54833
C          2.93206       -0.84252        3.75259
C          4.20447       -0.36095        3.54689
S          4.46753        0.06377        1.91440
C          3.42740       -0.10147       -1.04651
N          3.05585       -0.84360       -2.26787
C          2.43901       -0.30301       -3.32778
N          2.32849       -1.24255       -4.27938
C          2.71647       -2.47299       -3.75641
C          3.18200       -2.21536       -2.46046
C          3.65742       -3.22322       -1.62482
C          3.63815       -4.52024       -2.15365
C          3.17295       -4.78131       -3.45668
C          2.70379       -3.75844       -4.29322
C          1.85233       -0.97391       -5.63488
C          0.37393       -0.69950       -5.60315
C         -0.11408        0.60964       -5.73865
C         -1.48751        0.85811       -5.71809
C         -2.38586       -0.19521       -5.56362
C         -1.91427       -1.49835       -5.42586
C         -0.54197       -1.75052       -5.44189
H          1.14157       -1.20432        2.48594
H          2.56406       -1.16060        4.72178
H          4.98922       -0.23284        4.28186
H          3.45280        0.96948       -1.27313
H          4.43525       -0.43079       -0.78252
H          2.13294        0.73236       -3.42298
H          4.01463       -3.02416       -0.62232
H          3.98987       -5.35115       -1.54059
H          3.17589       -5.80923       -3.82182
H          2.34349       -3.96270       -5.29335
H          2.40811       -0.11259       -6.02399
H          2.07246       -1.81817       -6.29620
H          0.56233        1.45025       -5.87878
H         -1.86286        1.87298       -5.83263
H         -3.45641       -0.00128       -5.55652
H         -2.61977       -2.31872       -5.31142
H         -0.20036       -2.77775       -5.33733
