 xtb: 6.7.1 (edcfbbe)
          12202406543D

 19 19  0     0  0            999 V2000
    1.1696   -0.0630    1.0117 O   0  0  0  0  0  0  0  0  0  0  0  0
    0.5208   -1.3066    1.1024 C   0  0  0  0  0  0  0  0  0  0  0  0
    1.1354   -2.2181    0.0267 C   0  0  0  0  0  0  0  0  0  0  0  0
    2.5678   -2.3063    0.2373 N   0  0  0  0  0  0  0  0  0  0  0  0
    3.3503   -1.3186   -0.2101 C   0  0  0  0  0  0  0  0  0  0  0  0
    4.7065   -1.3157    0.0475 C   0  0  0  0  0  0  0  0  0  0  0  0
    5.2629   -2.3573    0.7774 C   0  0  0  0  0  0  0  0  0  0  0  0
    4.4305   -3.3731    1.2321 C   0  0  0  0  0  0  0  0  0  0  0  0
    3.0820   -3.3150    0.9500 C   0  0  0  0  0  0  0  0  0  0  0  0
    0.7177    0.5873    1.5593 H   0  0  0  0  0  0  0  0  0  0  0  0
    0.6653   -1.7519    2.0973 H   0  0  0  0  0  0  0  0  0  0  0  0
   -0.5538   -1.2215    0.9060 H   0  0  0  0  0  0  0  0  0  0  0  0
    0.6842   -3.2090    0.0764 H   0  0  0  0  0  0  0  0  0  0  0  0
    0.9471   -1.7778   -0.9540 H   0  0  0  0  0  0  0  0  0  0  0  0
    2.8732   -0.5224   -0.7610 H   0  0  0  0  0  0  0  0  0  0  0  0
    5.3160   -0.5064   -0.3214 H   0  0  0  0  0  0  0  0  0  0  0  0
    6.3206   -2.3785    0.9886 H   0  0  0  0  0  0  0  0  0  0  0  0
    4.8213   -4.2006    1.8024 H   0  0  0  0  0  0  0  0  0  0  0  0
    2.4007   -4.0812    1.2906 H   0  0  0  0  0  0  0  0  0  0  0  0
  1  2  1  0  0  0  0
  2  3  1  0  0  0  0
  3  4  1  0  0  0  0
  4  5  4  0  0  0  0
  5  6  4  0  0  0  0
  6  7  4  0  0  0  0
  7  8  4  0  0  0  0
  4  9  4  0  0  0  0
  8  9  4  0  0  0  0
  1 10  1  0  0  0  0
  2 11  1  0  0  0  0
  2 12  1  0  0  0  0
  3 13  1  0  0  0  0
  3 14  1  0  0  0  0
  5 15  1  0  0  0  0
  6 16  1  0  0  0  0
  7 17  1  0  0  0  0
  8 18  1  0  0  0  0
  9 19  1  0  0  0  0
M  CHG  1   1   1
M  END
