 xtb: 6.7.1 (edcfbbe)
          12202406543D

 22 22  0     0  0            999 V2000
    1.1900   -0.1714   -0.0176 C   0  0  0  0  0  0  0  0  0  0  0  0
    0.3230   -0.6120    1.1589 C   0  0  0  0  0  0  0  0  0  0  0  0
    0.8590   -0.0805    2.4038 N   0  0  0  0  0  0  0  0  0  0  0  0
    0.4677    1.1251    2.8350 C   0  0  0  0  0  0  0  0  0  0  0  0
    1.0142    1.6860    3.9665 C   0  0  0  0  0  0  0  0  0  0  0  0
    1.9827    0.9862    4.6882 C   0  0  0  0  0  0  0  0  0  0  0  0
    2.3771   -0.2639    4.2144 C   0  0  0  0  0  0  0  0  0  0  0  0
    1.7982   -0.7633    3.0664 C   0  0  0  0  0  0  0  0  0  0  0  0
    2.6290    1.6985    5.8600 C   0  0  0  0  0  0  0  0  0  0  0  0
    2.7448    2.8980    5.8200 O   0  0  0  0  0  0  0  0  0  0  0  0
    3.0629    0.9152    6.8611 N   0  0  0  0  0  0  0  0  0  0  0  0
    1.2177    0.9125   -0.0971 H   0  0  0  0  0  0  0  0  0  0  0  0
    0.7743   -0.5708   -0.9377 H   0  0  0  0  0  0  0  0  0  0  0  0
    2.2072   -0.5405    0.0865 H   0  0  0  0  0  0  0  0  0  0  0  0
   -0.6970   -0.2463    1.0298 H   0  0  0  0  0  0  0  0  0  0  0  0
    0.2993   -1.7015    1.2202 H   0  0  0  0  0  0  0  0  0  0  0  0
   -0.2862    1.6386    2.2564 H   0  0  0  0  0  0  0  0  0  0  0  0
    0.7181    2.6700    4.2979 H   0  0  0  0  0  0  0  0  0  0  0  0
    3.1432   -0.8388    4.7106 H   0  0  0  0  0  0  0  0  0  0  0  0
    2.0856   -1.7242    2.6644 H   0  0  0  0  0  0  0  0  0  0  0  0
    2.8618   -0.0667    6.9306 H   0  0  0  0  0  0  0  0  0  0  0  0
    3.4828    1.3685    7.6589 H   0  0  0  0  0  0  0  0  0  0  0  0
  1  2  1  0  0  0  0
  2  3  1  0  0  0  0
  3  4  4  0  0  0  0
  4  5  4  0  0  0  0
  5  6  4  0  0  0  0
  6  7  4  0  0  0  0
  3  8  4  0  0  0  0
  7  8  4  0  0  0  0
  6  9  1  0  0  0  0
  9 10  2  0  0  0  0
  9 11  4  0  0  0  0
  1 12  1  0  0  0  0
  1 13  1  0  0  0  0
  1 14  1  0  0  0  0
  2 15  1  0  0  0  0
  2 16  1  0  0  0  0
  4 17  1  0  0  0  0
  5 18  1  0  0  0  0
  7 19  1  0  0  0  0
  8 20  1  0  0  0  0
 11 21  1  0  0  0  0
 11 22  1  0  0  0  0
M  CHG  1   1   1
M  END
