56

C          1.15348       -0.42763       -0.48343
C          0.87390       -0.56721        1.00441
C          1.31303        0.64932        1.82229
C          0.61143        1.96811        1.47742
C         -0.91637        1.96252        1.60401
C         -1.46496        1.51849        2.96321
C         -0.96948        2.32534        4.16673
C         -1.39440        3.79839        4.19851
C         -2.90191        4.04419        4.30812
C         -3.55199        3.51389        5.58538
N         -3.21275        4.30933        6.78059
C         -3.85856        5.48901        7.12244
C         -3.34884        5.88950        8.31853
N         -2.39935        4.94918        8.68709
C         -2.30952        3.98956        7.73859
C         -1.39261        2.80894        7.73731
C         -1.63201        5.01397        9.93940
C         -2.49013        4.51815       11.07624
C         -2.91072        5.40147       12.08319
C         -3.69762        4.94772       13.14417
C         -4.07481        3.60901       13.21298
C         -3.66582        2.72099       12.22266
C         -2.87820        3.17127       11.16170
H          0.55199        0.36859       -0.93133
H          0.90771       -1.36069       -1.00060
H          2.21039       -0.20856       -0.66525
H         -0.19083       -0.77159        1.15933
H          1.41442       -1.44554        1.37796
H          1.16786        0.42480        2.88546
H          2.39351        0.79114        1.69265
H          1.02280        2.75570        2.12036
H          0.87339        2.26193        0.45393
H         -1.28797        2.96795        1.37302
H         -1.33801        1.30809        0.83146
H         -2.56005        1.54425        2.92565
H         -1.20563        0.46563        3.12684
H         -1.31863        1.81943        5.07137
H          0.12431        2.28043        4.21587
H         -0.89288        4.29156        5.03919
H         -1.02362        4.30088        3.29745
H         -3.07880        5.12456        4.23808
H         -3.40536        3.59697        3.44376
H         -4.64279        3.56605        5.47278
H         -3.32112        2.46146        5.76197
H         -4.61475        5.88611        6.46717
H         -3.54831        6.72300        8.96994
H         -1.96678        1.93647        7.42765
H         -0.58228        3.03533        7.04542
H         -0.99798        2.64706        8.73743
H         -0.70964        4.43224        9.86440
H         -1.33011        6.05677       10.09662
H         -2.62525        6.45163       12.06330
H         -4.01306        5.63678       13.92501
H         -4.68282        3.25593       14.04317
H         -3.95660        1.67425       12.28296
H         -2.57116        2.44760       10.41353
