 xtb: 6.7.1 (edcfbbe)
          12202406543D

 29 28  0     0  0            999 V2000
    0.8405   -0.4444   -0.2767 C   0  0  0  0  0  0  0  0  0  0  0  0
    0.4261   -1.1328    1.0206 C   0  0  0  0  0  0  0  0  0  0  0  0
    1.0237   -0.5641    2.3114 C   0  0  0  0  0  0  0  0  0  0  0  0
    0.4983    0.7342    2.8423 N   0  0  0  0  0  0  0  0  0  0  0  0
   -0.9976    0.7537    2.8955 C   0  0  0  0  0  0  0  0  0  0  0  0
   -1.6494   -0.3207    3.7524 C   0  0  0  0  0  0  0  0  0  0  0  0
    1.0301    0.9381    4.2290 C   0  0  0  0  0  0  0  0  0  0  0  0
    2.5356    1.1236    4.3426 C   0  0  0  0  0  0  0  0  0  0  0  0
    0.9247    1.8645    1.9947 C   0  0  0  0  0  0  0  0  0  0  0  0
    0.3023    0.4819   -0.4565 H   0  0  0  0  0  0  0  0  0  0  0  0
    0.6222   -1.1040   -1.1120 H   0  0  0  0  0  0  0  0  0  0  0  0
    1.9081   -0.2403   -0.2884 H   0  0  0  0  0  0  0  0  0  0  0  0
   -0.6598   -1.1992    1.0757 H   0  0  0  0  0  0  0  0  0  0  0  0
    0.7961   -2.1599    0.9787 H   0  0  0  0  0  0  0  0  0  0  0  0
    0.8810   -1.3043    3.1004 H   0  0  0  0  0  0  0  0  0  0  0  0
    2.0964   -0.4379    2.1589 H   0  0  0  0  0  0  0  0  0  0  0  0
   -1.2937    1.7364    3.2692 H   0  0  0  0  0  0  0  0  0  0  0  0
   -1.3615    0.6656    1.8713 H   0  0  0  0  0  0  0  0  0  0  0  0
   -1.4197   -0.2081    4.8076 H   0  0  0  0  0  0  0  0  0  0  0  0
   -2.7267   -0.2194    3.6457 H   0  0  0  0  0  0  0  0  0  0  0  0
   -1.3833   -1.3239    3.4338 H   0  0  0  0  0  0  0  0  0  0  0  0
    0.5337    1.8212    4.6371 H   0  0  0  0  0  0  0  0  0  0  0  0
    0.7389    0.0752    4.8280 H   0  0  0  0  0  0  0  0  0  0  0  0
    2.8864    2.0144    3.8308 H   0  0  0  0  0  0  0  0  0  0  0  0
    2.7720    1.2434    5.3972 H   0  0  0  0  0  0  0  0  0  0  0  0
    3.0896    0.2610    3.9850 H   0  0  0  0  0  0  0  0  0  0  0  0
    1.9851    1.7934    1.7695 H   0  0  0  0  0  0  0  0  0  0  0  0
    0.3741    1.8655    1.0588 H   0  0  0  0  0  0  0  0  0  0  0  0
    0.7331    2.8053    2.5078 H   0  0  0  0  0  0  0  0  0  0  0  0
  1  2  1  0  0  0  0
  2  3  1  0  0  0  0
  3  4  1  0  0  0  0
  4  5  1  0  0  0  0
  5  6  1  0  0  0  0
  4  7  1  0  0  0  0
  7  8  1  0  0  0  0
  4  9  1  0  0  0  0
  1 10  1  0  0  0  0
  1 11  1  0  0  0  0
  1 12  1  0  0  0  0
  2 13  1  0  0  0  0
  2 14  1  0  0  0  0
  3 15  1  0  0  0  0
  3 16  1  0  0  0  0
  5 17  1  0  0  0  0
  5 18  1  0  0  0  0
  6 19  1  0  0  0  0
  6 20  1  0  0  0  0
  6 21  1  0  0  0  0
  7 22  1  0  0  0  0
  7 23  1  0  0  0  0
  8 24  1  0  0  0  0
  8 25  1  0  0  0  0
  8 26  1  0  0  0  0
  9 27  1  0  0  0  0
  9 28  1  0  0  0  0
  9 29  1  0  0  0  0
M  CHG  1   1   1
M  END
