 xtb: 6.7.1 (edcfbbe)
          12202406543D

 52 53  0     0  0            999 V2000
    1.3363   -0.4213    0.1378 C   0  0  0  0  0  0  0  0  0  0  0  0
    0.9772    0.8235   -0.6646 C   0  0  0  0  0  0  0  0  0  0  0  0
    1.3253    0.7070   -2.1496 C   0  0  0  0  0  0  0  0  0  0  0  0
    0.6064   -0.4206   -2.8940 C   0  0  0  0  0  0  0  0  0  0  0  0
   -0.9214   -0.3446   -2.8597 C   0  0  0  0  0  0  0  0  0  0  0  0
   -1.5207    0.9468   -3.4205 C   0  0  0  0  0  0  0  0  0  0  0  0
   -1.1060    1.2960   -4.8511 C   0  0  0  0  0  0  0  0  0  0  0  0
   -1.5513    0.2804   -5.9101 C   0  0  0  0  0  0  0  0  0  0  0  0
   -2.9747    0.0139   -5.8739 N   0  0  0  0  0  0  0  0  0  0  0  0
   -3.9576    0.8812   -6.1418 C   0  0  0  0  0  0  0  0  0  0  0  0
   -3.7754    2.2618   -6.6351 C   0  0  0  0  0  0  0  0  0  0  0  0
   -5.1515    0.3146   -5.9102 N   0  0  0  0  0  0  0  0  0  0  0  0
   -4.9415   -0.9841   -5.4908 C   0  0  0  0  0  0  0  0  0  0  0  0
   -3.5485   -1.1769   -5.4734 C   0  0  0  0  0  0  0  0  0  0  0  0
   -3.0004   -2.4049   -5.1252 C   0  0  0  0  0  0  0  0  0  0  0  0
   -3.8732   -3.4162   -4.7652 C   0  0  0  0  0  0  0  0  0  0  0  0
   -3.2442   -4.9474   -4.3268 Cl  0  0  0  0  0  0  0  0  0  0  0  0
   -5.2722   -3.2117   -4.7616 C   0  0  0  0  0  0  0  0  0  0  0  0
   -5.8206   -1.9957   -5.1292 C   0  0  0  0  0  0  0  0  0  0  0  0
   -6.3074   -4.4969   -4.3107 Cl  0  0  0  0  0  0  0  0  0  0  0  0
   -6.4367    0.9610   -6.0664 C   0  0  0  0  0  0  0  0  0  0  0  0
   -6.9916    0.8323   -7.4882 C   0  0  0  0  0  0  0  0  0  0  0  0
   -7.8184   -0.4329   -7.6638 C   0  0  0  0  0  0  0  0  0  0  0  0
   -8.2180   -1.1079   -6.7556 O   0  0  0  0  0  0  0  0  0  0  0  0
   -8.0513   -0.6800   -8.9420 O   0  0  0  0  0  0  0  0  0  0  0  0
    0.7281   -1.2728   -0.1570 H   0  0  0  0  0  0  0  0  0  0  0  0
    1.1727   -0.2431    1.1977 H   0  0  0  0  0  0  0  0  0  0  0  0
    2.3832   -0.6776   -0.0068 H   0  0  0  0  0  0  0  0  0  0  0  0
   -0.0860    1.0411   -0.5436 H   0  0  0  0  0  0  0  0  0  0  0  0
    1.5283    1.6741   -0.2580 H   0  0  0  0  0  0  0  0  0  0  0  0
    1.1132    1.6623   -2.6354 H   0  0  0  0  0  0  0  0  0  0  0  0
    2.3998    0.5326   -2.2392 H   0  0  0  0  0  0  0  0  0  0  0  0
    0.9545   -0.4258   -3.9301 H   0  0  0  0  0  0  0  0  0  0  0  0
    0.9029   -1.3754   -2.4581 H   0  0  0  0  0  0  0  0  0  0  0  0
   -1.3265   -1.2038   -3.3978 H   0  0  0  0  0  0  0  0  0  0  0  0
   -1.2562   -0.4404   -1.8263 H   0  0  0  0  0  0  0  0  0  0  0  0
   -2.6112    0.8758   -3.3615 H   0  0  0  0  0  0  0  0  0  0  0  0
   -1.2204    1.7778   -2.7819 H   0  0  0  0  0  0  0  0  0  0  0  0
   -1.5033    2.2820   -5.0941 H   0  0  0  0  0  0  0  0  0  0  0  0
   -0.0202    1.3639   -4.9083 H   0  0  0  0  0  0  0  0  0  0  0  0
   -1.2807    0.6446   -6.9055 H   0  0  0  0  0  0  0  0  0  0  0  0
   -1.0427   -0.6682   -5.7472 H   0  0  0  0  0  0  0  0  0  0  0  0
   -4.5550    2.5233   -7.3466 H   0  0  0  0  0  0  0  0  0  0  0  0
   -3.8228    2.9749   -5.8105 H   0  0  0  0  0  0  0  0  0  0  0  0
   -2.8099    2.3714   -7.1215 H   0  0  0  0  0  0  0  0  0  0  0  0
   -1.9411   -2.5985   -5.1386 H   0  0  0  0  0  0  0  0  0  0  0  0
   -6.8906   -1.8679   -5.1604 H   0  0  0  0  0  0  0  0  0  0  0  0
   -7.1381    0.4816   -5.3785 H   0  0  0  0  0  0  0  0  0  0  0  0
   -6.3322    2.0104   -5.7881 H   0  0  0  0  0  0  0  0  0  0  0  0
   -7.6619    1.6683   -7.6981 H   0  0  0  0  0  0  0  0  0  0  0  0
   -6.2075    0.8405   -8.2455 H   0  0  0  0  0  0  0  0  0  0  0  0
   -8.6214   -1.4575   -9.0636 H   0  0  0  0  0  0  0  0  0  0  0  0
  1  2  1  0  0  0  0
  2  3  1  0  0  0  0
  3  4  1  0  0  0  0
  4  5  1  0  0  0  0
  5  6  1  0  0  0  0
  6  7  1  0  0  0  0
  7  8  1  0  0  0  0
  8  9  1  0  0  0  0
  9 10  4  0  0  0  0
 10 11  1  0  0  0  0
 10 12  4  0  0  0  0
 12 13  1  0  0  0  0
  9 14  1  0  0  0  0
 13 14  4  0  0  0  0
 14 15  4  0  0  0  0
 15 16  4  0  0  0  0
 16 17  1  0  0  0  0
 16 18  4  0  0  0  0
 13 19  4  0  0  0  0
 18 19  4  0  0  0  0
 18 20  1  0  0  0  0
 12 21  1  0  0  0  0
 21 22  1  0  0  0  0
 22 23  1  0  0  0  0
 23 24  2  0  0  0  0
 23 25  1  0  0  0  0
  1 26  1  0  0  0  0
  1 27  1  0  0  0  0
  1 28  1  0  0  0  0
  2 29  1  0  0  0  0
  2 30  1  0  0  0  0
  3 31  1  0  0  0  0
  3 32  1  0  0  0  0
  4 33  1  0  0  0  0
  4 34  1  0  0  0  0
  5 35  1  0  0  0  0
  5 36  1  0  0  0  0
  6 37  1  0  0  0  0
  6 38  1  0  0  0  0
  7 39  1  0  0  0  0
  7 40  1  0  0  0  0
  8 41  1  0  0  0  0
  8 42  1  0  0  0  0
 11 43  1  0  0  0  0
 11 44  1  0  0  0  0
 11 45  1  0  0  0  0
 15 46  1  0  0  0  0
 19 47  1  0  0  0  0
 21 48  1  0  0  0  0
 21 49  1  0  0  0  0
 22 50  1  0  0  0  0
 22 51  1  0  0  0  0
 25 52  1  0  0  0  0
M  CHG  1   1   1
M  END
