 xtb: 6.7.1 (edcfbbe)
          12202406543D

 19 19  0     0  0            999 V2000
    0.8601   -0.0362    0.1226 C   0  0  0  0  0  0  0  0  0  0  0  0
    0.4305    0.2111    1.4984 C   0  0  0  0  0  0  0  0  0  0  0  0
   -0.0363   -0.5652    2.3586 N   0  0  0  0  0  0  0  0  0  0  0  0
   -0.3158    0.1103    3.5543 C   0  0  0  0  0  0  0  0  0  0  0  0
   -0.0010    1.4169    3.4429 C   0  0  0  0  0  0  0  0  0  0  0  0
    0.5265    1.6325    2.0794 N   0  0  0  0  0  0  0  0  0  0  0  0
   -0.0936    2.5657    4.3663 C   0  0  0  0  0  0  0  0  0  0  0  0
   -0.8812   -0.6541    4.6813 C   0  0  0  0  0  0  0  0  0  0  0  0
    0.2455    0.5178   -0.5876 H   0  0  0  0  0  0  0  0  0  0  0  0
    0.7599   -1.0982   -0.0872 H   0  0  0  0  0  0  0  0  0  0  0  0
    1.8988    0.2565   -0.0291 H   0  0  0  0  0  0  0  0  0  0  0  0
    1.4939    1.9796    2.0854 H   0  0  0  0  0  0  0  0  0  0  0  0
   -0.0338    2.3080    1.5444 H   0  0  0  0  0  0  0  0  0  0  0  0
    0.8707    3.0606    4.4820 H   0  0  0  0  0  0  0  0  0  0  0  0
   -0.8121    3.3038    4.0077 H   0  0  0  0  0  0  0  0  0  0  0  0
   -0.4215    2.2253    5.3435 H   0  0  0  0  0  0  0  0  0  0  0  0
   -0.9103   -0.0640    5.5916 H   0  0  0  0  0  0  0  0  0  0  0  0
   -1.8904   -0.9786    4.4307 H   0  0  0  0  0  0  0  0  0  0  0  0
   -0.2878   -1.5517    4.8411 H   0  0  0  0  0  0  0  0  0  0  0  0
  1  2  1  0  0  0  0
  2  3  2  0  0  0  0
  3  4  1  0  0  0  0
  4  5  2  0  0  0  0
  2  6  1  0  0  0  0
  5  6  1  0  0  0  0
  5  7  1  0  0  0  0
  4  8  1  0  0  0  0
  1  9  1  0  0  0  0
  1 10  1  0  0  0  0
  1 11  1  0  0  0  0
  6 12  1  0  0  0  0
  6 13  1  0  0  0  0
  7 14  1  0  0  0  0
  7 15  1  0  0  0  0
  7 16  1  0  0  0  0
  8 17  1  0  0  0  0
  8 18  1  0  0  0  0
  8 19  1  0  0  0  0
M  CHG  1   1   1
M  END
