19

C          0.77015        0.07017        0.11174
C          0.50730        0.34297        1.53316
N          0.23972       -0.57511        2.46270
C         -0.18712        0.05607        3.58394
C         -0.00499        1.41454        3.36348
N          0.63395        1.50320        2.17719
C         -0.35529        2.58503        4.19399
C         -0.75078       -0.67020        4.73205
H          0.38270        0.88531       -0.50669
H          0.28501       -0.86022       -0.19860
H          1.84790       -0.02003       -0.05378
H          1.61660        1.50410        2.40252
H          0.43744        2.31010        1.62042
H          0.53707        3.18927        4.38285
H         -1.10018        3.19636        3.67632
H         -0.76945        2.26569        5.15445
H         -0.12957       -0.49891        5.61629
H         -1.76428       -0.31176        4.93541
H         -0.79424       -1.74643        4.53887
