 xtb: 6.7.1 (edcfbbe)
          12202406543D

 50 52  0     0  0            999 V2000
    0.2155   -0.3046   -0.4226 C   0  0  0  0  0  0  0  0  0  0  0  0
    0.1286    1.5825   -0.1893 Si  0  0  0  0  0  0  0  0  0  0  0  0
    1.1445    2.4524   -1.5839 C   0  0  0  0  0  0  0  0  0  0  0  0
    1.0673    1.8484   -2.9849 C   0  0  0  0  0  0  0  0  0  0  0  0
   -0.3378    1.8361   -3.5849 C   0  0  0  0  0  0  0  0  0  0  0  0
   -0.9591    3.1426   -3.5857 N   0  0  0  0  0  0  0  0  0  0  0  0
   -0.3423    4.3168   -3.6461 C   0  0  0  0  0  0  0  0  0  0  0  0
   -1.1984    5.3259   -3.5211 N   0  0  0  0  0  0  0  0  0  0  0  0
   -2.4588    4.7883   -3.3681 C   0  0  0  0  0  0  0  0  0  0  0  0
   -2.3059    3.3893   -3.4247 C   0  0  0  0  0  0  0  0  0  0  0  0
   -3.4039    2.5411   -3.3337 C   0  0  0  0  0  0  0  0  0  0  0  0
   -4.6388    3.1304   -3.1648 C   0  0  0  0  0  0  0  0  0  0  0  0
   -4.7882    4.5188   -3.0954 C   0  0  0  0  0  0  0  0  0  0  0  0
   -3.7094    5.3709   -3.1996 C   0  0  0  0  0  0  0  0  0  0  0  0
   -0.8319    6.7194   -3.3559 C   0  0  0  0  0  0  0  0  0  0  0  0
   -0.5551    6.9780   -1.8904 C   0  0  0  0  0  0  0  0  0  0  0  0
    0.6541    6.5743   -1.3370 C   0  0  0  0  0  0  0  0  0  0  0  0
    0.8965    6.7475    0.0137 C   0  0  0  0  0  0  0  0  0  0  0  0
   -0.0683    7.3260    0.8216 C   0  0  0  0  0  0  0  0  0  0  0  0
   -1.2716    7.7367    0.2740 C   0  0  0  0  0  0  0  0  0  0  0  0
   -1.5177    7.5581   -1.0767 C   0  0  0  0  0  0  0  0  0  0  0  0
   -1.6868    2.1877   -0.2415 C   0  0  0  0  0  0  0  0  0  0  0  0
    0.9038    2.1286    1.4572 C   0  0  0  0  0  0  0  0  0  0  0  0
   -0.2709   -0.6447   -1.3325 H   0  0  0  0  0  0  0  0  0  0  0  0
   -0.2676   -0.8109    0.4071 H   0  0  0  0  0  0  0  0  0  0  0  0
    1.2446   -0.6497   -0.4529 H   0  0  0  0  0  0  0  0  0  0  0  0
    0.8702    3.5091   -1.6106 H   0  0  0  0  0  0  0  0  0  0  0  0
    2.1926    2.4295   -1.2864 H   0  0  0  0  0  0  0  0  0  0  0  0
    1.7499    2.3717   -3.6602 H   0  0  0  0  0  0  0  0  0  0  0  0
    1.4009    0.8119   -2.9409 H   0  0  0  0  0  0  0  0  0  0  0  0
   -0.3021    1.4570   -4.6120 H   0  0  0  0  0  0  0  0  0  0  0  0
   -0.9787    1.1801   -2.9948 H   0  0  0  0  0  0  0  0  0  0  0  0
    0.7107    4.4451   -3.8050 H   0  0  0  0  0  0  0  0  0  0  0  0
   -3.3010    1.4707   -3.4039 H   0  0  0  0  0  0  0  0  0  0  0  0
   -5.5152    2.5070   -3.0880 H   0  0  0  0  0  0  0  0  0  0  0  0
   -5.7756    4.9313   -2.9631 H   0  0  0  0  0  0  0  0  0  0  0  0
   -3.8368    6.4396   -3.1572 H   0  0  0  0  0  0  0  0  0  0  0  0
    0.0569    6.9186   -3.9587 H   0  0  0  0  0  0  0  0  0  0  0  0
   -1.6532    7.3406   -3.7152 H   0  0  0  0  0  0  0  0  0  0  0  0
    1.4188    6.1396   -1.9652 H   0  0  0  0  0  0  0  0  0  0  0  0
    1.8405    6.4355    0.4328 H   0  0  0  0  0  0  0  0  0  0  0  0
    0.1211    7.4632    1.8746 H   0  0  0  0  0  0  0  0  0  0  0  0
   -2.0216    8.1974    0.8977 H   0  0  0  0  0  0  0  0  0  0  0  0
   -2.4564    7.8861   -1.4975 H   0  0  0  0  0  0  0  0  0  0  0  0
   -2.1484    2.0344    0.7284 H   0  0  0  0  0  0  0  0  0  0  0  0
   -1.7605    3.2496   -0.4631 H   0  0  0  0  0  0  0  0  0  0  0  0
   -2.2959    1.6537   -0.9642 H   0  0  0  0  0  0  0  0  0  0  0  0
    0.3835    1.6815    2.2983 H   0  0  0  0  0  0  0  0  0  0  0  0
    1.9464    1.8348    1.5281 H   0  0  0  0  0  0  0  0  0  0  0  0
    0.8564    3.2068    1.5820 H   0  0  0  0  0  0  0  0  0  0  0  0
  1  2  1  0  0  0  0
  2  3  1  0  0  0  0
  3  4  1  0  0  0  0
  4  5  1  0  0  0  0
  5  6  1  0  0  0  0
  6  7  4  0  0  0  0
  7  8  4  0  0  0  0
  8  9  1  0  0  0  0
  6 10  1  0  0  0  0
  9 10  4  0  0  0  0
 10 11  4  0  0  0  0
 11 12  4  0  0  0  0
 12 13  4  0  0  0  0
  9 14  4  0  0  0  0
 13 14  4  0  0  0  0
  8 15  1  0  0  0  0
 15 16  1  0  0  0  0
 16 17  4  0  0  0  0
 17 18  4  0  0  0  0
 18 19  4  0  0  0  0
 19 20  4  0  0  0  0
 16 21  4  0  0  0  0
 20 21  4  0  0  0  0
  2 22  1  0  0  0  0
  2 23  1  0  0  0  0
  1 24  1  0  0  0  0
  1 25  1  0  0  0  0
  1 26  1  0  0  0  0
  3 27  1  0  0  0  0
  3 28  1  0  0  0  0
  4 29  1  0  0  0  0
  4 30  1  0  0  0  0
  5 31  1  0  0  0  0
  5 32  1  0  0  0  0
  7 33  1  0  0  0  0
 11 34  1  0  0  0  0
 12 35  1  0  0  0  0
 13 36  1  0  0  0  0
 14 37  1  0  0  0  0
 15 38  1  0  0  0  0
 15 39  1  0  0  0  0
 17 40  1  0  0  0  0
 18 41  1  0  0  0  0
 19 42  1  0  0  0  0
 20 43  1  0  0  0  0
 21 44  1  0  0  0  0
 22 45  1  0  0  0  0
 22 46  1  0  0  0  0
 22 47  1  0  0  0  0
 23 48  1  0  0  0  0
 23 49  1  0  0  0  0
 23 50  1  0  0  0  0
M  CHG  1   1   1
M  END
