35

C          0.57456       -0.60199        0.91660
C          0.21546        0.12554        2.20306
C          0.87112        1.50346        2.33286
C          0.42272        2.51765        1.27897
N         -1.03232        2.80483        1.32580
C         -1.68207        3.20724        2.47351
N         -1.10466        3.97718        3.48045
C          0.07482        4.82864        3.38207
C         -2.08428        4.16807        4.55771
C         -3.36492        3.50267        4.05859
N         -3.00653        2.89366        2.77197
C         -3.83868        1.85487        2.17538
C         -1.77099        2.61488        0.06738
H          0.16606       -0.09357        0.03872
H          0.16275       -1.61629        0.93187
H          1.65998       -0.67978        0.79878
H         -0.87342        0.21374        2.28052
H          0.53992       -0.49072        3.05020
H          0.65565        1.88683        3.33561
H          1.96027        1.39068        2.27097
H          0.97358        3.45609        1.37115
H          0.67348        2.13588        0.28257
H         -0.01980        5.67288        4.07207
H          0.96456        4.25688        3.65338
H          0.15754        5.23642        2.37167
H         -2.23803        5.23413        4.75126
H         -1.70980        3.68166        5.46351
H         -4.15678        4.23908        3.89118
H         -3.71705        2.73844        4.75817
H         -3.21736        1.03044        1.81938
H         -4.52385        1.45338        2.92830
H         -4.42564        2.28347        1.36001
H         -1.16683        2.98927       -0.76527
H         -1.97277        1.55180       -0.08232
H         -2.69715        3.19484        0.07630
