 xtb: 6.7.1 (edcfbbe)
          12202406543D

 38 40  0     0  0            999 V2000
    2.2029    0.1493   -0.9915 C   0  0  0  0  0  0  0  0  0  0  0  0
    1.1041    0.0187   -1.7081 C   0  0  0  0  0  0  0  0  0  0  0  0
   -0.2812    0.0295   -1.1176 C   0  0  0  0  0  0  0  0  0  0  0  0
   -1.1279    0.9849   -1.7998 N   0  0  0  0  0  0  0  0  0  0  0  0
   -1.3591    2.2350   -1.4205 C   0  0  0  0  0  0  0  0  0  0  0  0
   -2.1339    2.8717   -2.2992 N   0  0  0  0  0  0  0  0  0  0  0  0
   -2.4545    1.9768   -3.3026 C   0  0  0  0  0  0  0  0  0  0  0  0
   -1.7935    0.7733   -2.9897 C   0  0  0  0  0  0  0  0  0  0  0  0
   -1.8905   -0.3398   -3.8162 C   0  0  0  0  0  0  0  0  0  0  0  0
   -2.6650   -0.2114   -4.9504 C   0  0  0  0  0  0  0  0  0  0  0  0
   -3.3239    0.9817   -5.2591 C   0  0  0  0  0  0  0  0  0  0  0  0
   -3.2320    2.0940   -4.4477 C   0  0  0  0  0  0  0  0  0  0  0  0
   -2.7449    4.1427   -2.0434 C   0  0  0  0  0  0  0  0  0  0  0  0
   -3.5449    4.0360   -0.7156 C   0  0  0  0  0  0  0  0  0  0  0  0
   -3.3768    3.0576   -0.0232 O   0  0  0  0  0  0  0  0  0  0  0  0
   -4.4371    5.1409   -0.3804 C   0  0  0  0  0  0  0  0  0  0  0  0
   -4.5382    6.3156   -1.1356 C   0  0  0  0  0  0  0  0  0  0  0  0
   -5.3958    7.3213   -0.7448 C   0  0  0  0  0  0  0  0  0  0  0  0
   -6.1670    7.1670    0.4035 C   0  0  0  0  0  0  0  0  0  0  0  0
   -6.0794    6.0088    1.1679 C   0  0  0  0  0  0  0  0  0  0  0  0
   -5.2187    5.0083    0.7765 C   0  0  0  0  0  0  0  0  0  0  0  0
   -7.3431    8.5524    0.9280 Br  0  0  0  0  0  0  0  0  0  0  0  0
    2.1776    0.2770    0.0779 H   0  0  0  0  0  0  0  0  0  0  0  0
    3.1776    0.1136   -1.4444 H   0  0  0  0  0  0  0  0  0  0  0  0
    1.1469   -0.1173   -2.7797 H   0  0  0  0  0  0  0  0  0  0  0  0
   -0.7392   -0.9588   -1.2221 H   0  0  0  0  0  0  0  0  0  0  0  0
   -0.2431    0.2879   -0.0579 H   0  0  0  0  0  0  0  0  0  0  0  0
   -0.9500    2.6797   -0.5337 H   0  0  0  0  0  0  0  0  0  0  0  0
   -1.3829   -1.2623   -3.5869 H   0  0  0  0  0  0  0  0  0  0  0  0
   -2.7662   -1.0515   -5.6185 H   0  0  0  0  0  0  0  0  0  0  0  0
   -3.9193    1.0324   -6.1566 H   0  0  0  0  0  0  0  0  0  0  0  0
   -3.7442    3.0081   -4.7004 H   0  0  0  0  0  0  0  0  0  0  0  0
   -1.9835    4.9194   -1.9229 H   0  0  0  0  0  0  0  0  0  0  0  0
   -3.4006    4.4006   -2.8738 H   0  0  0  0  0  0  0  0  0  0  0  0
   -3.9443    6.4626   -2.0238 H   0  0  0  0  0  0  0  0  0  0  0  0
   -5.4722    8.2284   -1.3237 H   0  0  0  0  0  0  0  0  0  0  0  0
   -6.6801    5.9022    2.0576 H   0  0  0  0  0  0  0  0  0  0  0  0
   -5.1328    4.1013    1.3555 H   0  0  0  0  0  0  0  0  0  0  0  0
  1  2  2  0  0  0  0
  2  3  1  0  0  0  0
  3  4  1  0  0  0  0
  4  5  4  0  0  0  0
  5  6  4  0  0  0  0
  6  7  1  0  0  0  0
  4  8  1  0  0  0  0
  7  8  4  0  0  0  0
  8  9  4  0  0  0  0
  9 10  4  0  0  0  0
 10 11  4  0  0  0  0
  7 12  4  0  0  0  0
 11 12  4  0  0  0  0
  6 13  1  0  0  0  0
 13 14  1  0  0  0  0
 14 15  2  0  0  0  0
 14 16  1  0  0  0  0
 16 17  4  0  0  0  0
 17 18  4  0  0  0  0
 18 19  4  0  0  0  0
 19 20  4  0  0  0  0
 16 21  4  0  0  0  0
 20 21  4  0  0  0  0
 19 22  1  0  0  0  0
  1 23  1  0  0  0  0
  1 24  1  0  0  0  0
  2 25  1  0  0  0  0
  3 26  1  0  0  0  0
  3 27  1  0  0  0  0
  5 28  1  0  0  0  0
  9 29  1  0  0  0  0
 10 30  1  0  0  0  0
 11 31  1  0  0  0  0
 12 32  1  0  0  0  0
 13 33  1  0  0  0  0
 13 34  1  0  0  0  0
 17 35  1  0  0  0  0
 18 36  1  0  0  0  0
 20 37  1  0  0  0  0
 21 38  1  0  0  0  0
M  CHG  1   1   1
M  END
