44

O          1.33219        0.13577       -0.77635
C          0.64963       -1.01553       -0.91234
O          1.21855       -2.08844       -0.85686
C         -0.82643       -0.80597       -1.06627
C         -1.58784       -1.28632        0.16203
C         -1.44791       -0.39436        1.39763
N         -1.68798        1.04341        1.16157
C         -0.81777        2.03739        1.47082
C          0.54156        1.85933        2.07628
N         -1.41227        3.21496        1.17281
C         -2.66578        2.98085        0.61333
C         -2.87313        1.59990        0.67362
C         -4.07687        1.02083        0.27294
C         -5.04720        1.88880       -0.24250
C         -4.82485        3.27282       -0.33306
C         -3.62748        3.85237        0.10220
C         -0.85046        4.54773        1.44382
C         -1.14234        4.93646        2.87286
C         -0.18233        4.75667        3.88127
C         -0.46367        5.10436        5.20467
C         -1.70231        5.64607        5.53685
C         -2.66140        5.84156        4.54731
C         -2.38565        5.48669        3.22501
H          2.27137       -0.15945       -0.77887
H         -1.03906        0.24233       -1.29833
H         -1.13936       -1.38079       -1.94622
H         -2.64310       -1.38281       -0.10683
H         -1.26063       -2.29825        0.43370
H         -2.16106       -0.71667        2.16617
H         -0.45436       -0.53551        1.83011
H          0.39641        1.74213        3.15073
H          1.00692        0.97731        1.64211
H          1.15439        2.72847        1.84615
H         -4.26578       -0.04118        0.35139
H         -6.00019        1.48152       -0.58268
H         -5.60919        3.90966       -0.74385
H         -3.46573        4.92104        0.04245
H          0.22437        4.54643        1.24010
H         -1.28070        5.28319        0.75531
H          0.80405        4.35973        3.65493
H          0.28705        4.96362        5.97972
H         -1.91699        5.92582        6.56615
H         -3.62373        6.27780        4.80754
H         -3.15368        5.66121        2.47590
