22

C          0.93923       -0.03264       -0.04932
C          0.18679        0.34662        0.99301
C         -1.30627        0.27621        1.04140
N         -1.67832       -0.66730        2.09092
C         -2.35706       -0.37065        3.26143
C         -2.50887       -1.54817        3.93836
N         -1.91702       -2.53199        3.16502
C         -1.43113       -1.98564        2.04066
C         -1.81860       -3.95118        3.49223
C         -2.57302       -4.77397        2.46060
C         -3.22016       -5.47976        1.57566
H          0.51141       -0.42824       -0.96654
H          2.02243        0.06607       -0.01655
H          0.68118        0.75754        1.87125
H         -1.72384        1.26326        1.26465
H         -1.73823       -0.07416        0.09778
H         -2.64608        0.64679        3.46270
H         -2.96419       -1.81323        4.87742
H         -0.92379       -2.51121        1.23864
H         -0.76042       -4.23198        3.49688
H         -2.23449       -4.13211        4.48844
H         -3.75330       -6.06717        0.86132
