45

C          1.24736        0.08167       -0.44658
C          0.98926        0.80729        0.86371
C          1.32837        2.30074        0.82726
C          0.63483        3.15503       -0.25279
C         -0.89269        2.98249       -0.45100
N         -1.78717        3.85241        0.55110
C         -1.73174        5.37959        0.29960
C         -2.13170        5.97121       -1.02819
C         -1.19285        6.72714       -1.75513
C         -1.54762        7.36614       -2.94625
C         -2.84513        7.25894       -3.43488
C         -3.79310        6.53337       -2.72118
C         -3.44558        5.91399       -1.51708
C         -3.22939        3.33096        0.47870
C         -1.35025        3.63798        2.00251
C         -1.31261        3.07229       -1.93952
O         -2.33761        2.55134       -2.36605
O         -0.44794        3.81214       -2.67924
C         -0.79655        3.94902       -4.06184
H          0.60137        0.45163       -1.24771
H          1.04628       -0.98812       -0.32659
H          2.28947        0.19651       -0.75982
H         -0.05190        0.65699        1.16797
H          1.59938        0.33740        1.64523
H          1.14484        2.71701        1.82096
H          2.41213        2.40031        0.67782
H          0.88405        4.20849       -0.08545
H          1.14447        2.89019       -1.18870
H         -1.14422        1.94975       -0.18530
H         -2.36086        5.84113        1.07289
H         -0.70211        5.67763        0.53094
H         -0.17076        6.84760       -1.39855
H         -0.81358        7.95739       -3.49032
H         -3.12381        7.75665       -4.36143
H         -4.81371        6.46820       -3.09432
H         -4.24056        5.41730       -0.96934
H         -3.23567        2.29230        0.82449
H         -3.85300        3.94734        1.13360
H         -3.59731        3.37792       -0.54312
H         -1.28241        2.56442        2.19482
H         -0.39329        4.13942        2.16162
H         -2.09887        4.08955        2.66199
H         -0.54901        3.02674       -4.59452
H         -1.85508        4.19587       -4.18816
H         -0.20083        4.76543       -4.47963
