 xtb: 6.7.1 (edcfbbe)
          12202406553D

 45 45  0     0  0            999 V2000
    2.0826    1.0881   -1.1750 C   0  0  0  0  0  0  0  0  0  0  0  0
    1.1178    0.9246   -0.0070 C   0  0  0  0  0  0  0  0  0  0  0  0
    0.9960    2.1833    0.8551 C   0  0  0  0  0  0  0  0  0  0  0  0
    0.3355    3.3711    0.1426 C   0  0  0  0  0  0  0  0  0  0  0  0
   -1.1598    3.1533   -0.1497 C   0  0  0  0  0  0  0  0  0  0  0  0
   -2.0803    3.9567    0.7371 N   0  0  0  0  0  0  0  0  0  0  0  0
   -1.9492    5.4410    0.5258 C   0  0  0  0  0  0  0  0  0  0  0  0
   -2.1319    5.9059   -0.8930 C   0  0  0  0  0  0  0  0  0  0  0  0
   -1.0227    6.1011   -1.7096 C   0  0  0  0  0  0  0  0  0  0  0  0
   -1.1819    6.5449   -3.0113 C   0  0  0  0  0  0  0  0  0  0  0  0
   -2.4494    6.7976   -3.5088 C   0  0  0  0  0  0  0  0  0  0  0  0
   -3.5562    6.6266   -2.6943 C   0  0  0  0  0  0  0  0  0  0  0  0
   -3.3990    6.1915   -1.3911 C   0  0  0  0  0  0  0  0  0  0  0  0
   -3.4877    3.5477    0.5342 C   0  0  0  0  0  0  0  0  0  0  0  0
   -1.7652    3.6727    2.1541 C   0  0  0  0  0  0  0  0  0  0  0  0
   -1.5113    3.2645   -1.6598 C   0  0  0  0  0  0  0  0  0  0  0  0
   -2.6351    3.2666   -2.0872 O   0  0  0  0  0  0  0  0  0  0  0  0
   -0.4367    3.2172   -2.4213 O   0  0  0  0  0  0  0  0  0  0  0  0
   -0.6607    3.1826   -3.8323 C   0  0  0  0  0  0  0  0  0  0  0  0
    1.7090    1.8038   -1.9024 H   0  0  0  0  0  0  0  0  0  0  0  0
    2.2162    0.1357   -1.6801 H   0  0  0  0  0  0  0  0  0  0  0  0
    3.0544    1.4234   -0.8218 H   0  0  0  0  0  0  0  0  0  0  0  0
    0.1389    0.6234   -0.3884 H   0  0  0  0  0  0  0  0  0  0  0  0
    1.4764    0.1167    0.6327 H   0  0  0  0  0  0  0  0  0  0  0  0
    0.4512    1.9359    1.7685 H   0  0  0  0  0  0  0  0  0  0  0  0
    2.0004    2.4900    1.1512 H   0  0  0  0  0  0  0  0  0  0  0  0
    0.4913    4.2704    0.7367 H   0  0  0  0  0  0  0  0  0  0  0  0
    0.8611    3.5297   -0.7964 H   0  0  0  0  0  0  0  0  0  0  0  0
   -1.3933    2.1035    0.0763 H   0  0  0  0  0  0  0  0  0  0  0  0
   -2.6974    5.9153    1.1647 H   0  0  0  0  0  0  0  0  0  0  0  0
   -0.9618    5.7452    0.8768 H   0  0  0  0  0  0  0  0  0  0  0  0
   -0.0283    5.9241   -1.3265 H   0  0  0  0  0  0  0  0  0  0  0  0
   -0.3130    6.7016   -3.6320 H   0  0  0  0  0  0  0  0  0  0  0  0
   -2.5732    7.1403   -4.5241 H   0  0  0  0  0  0  0  0  0  0  0  0
   -4.5438    6.8397   -3.0713 H   0  0  0  0  0  0  0  0  0  0  0  0
   -4.2679    6.0903   -0.7581 H   0  0  0  0  0  0  0  0  0  0  0  0
   -3.5940    2.4806    0.7210 H   0  0  0  0  0  0  0  0  0  0  0  0
   -4.1272    4.0895    1.2281 H   0  0  0  0  0  0  0  0  0  0  0  0
   -3.8019    3.7503   -0.4867 H   0  0  0  0  0  0  0  0  0  0  0  0
   -1.8825    2.6094    2.3552 H   0  0  0  0  0  0  0  0  0  0  0  0
   -0.7512    3.9688    2.4074 H   0  0  0  0  0  0  0  0  0  0  0  0
   -2.4517    4.2223    2.7958 H   0  0  0  0  0  0  0  0  0  0  0  0
   -1.2373    2.2960   -4.0984 H   0  0  0  0  0  0  0  0  0  0  0  0
   -1.2098    4.0726   -4.1432 H   0  0  0  0  0  0  0  0  0  0  0  0
    0.3235    3.1533   -4.2910 H   0  0  0  0  0  0  0  0  0  0  0  0
  1  2  1  0  0  0  0
  2  3  1  0  0  0  0
  3  4  1  0  0  0  0
  4  5  1  0  0  0  0
  5  6  1  0  0  0  0
  6  7  1  0  0  0  0
  7  8  1  0  0  0  0
  8  9  4  0  0  0  0
  9 10  4  0  0  0  0
 10 11  4  0  0  0  0
 11 12  4  0  0  0  0
  8 13  4  0  0  0  0
 12 13  4  0  0  0  0
  6 14  1  0  0  0  0
  6 15  1  0  0  0  0
  5 16  1  0  0  0  0
 16 17  2  0  0  0  0
 16 18  1  0  0  0  0
 18 19  1  0  0  0  0
  1 20  1  0  0  0  0
  1 21  1  0  0  0  0
  1 22  1  0  0  0  0
  2 23  1  0  0  0  0
  2 24  1  0  0  0  0
  3 25  1  0  0  0  0
  3 26  1  0  0  0  0
  4 27  1  0  0  0  0
  4 28  1  0  0  0  0
  5 29  1  0  0  0  0
  7 30  1  0  0  0  0
  7 31  1  0  0  0  0
  9 32  1  0  0  0  0
 10 33  1  0  0  0  0
 11 34  1  0  0  0  0
 12 35  1  0  0  0  0
 13 36  1  0  0  0  0
 14 37  1  0  0  0  0
 14 38  1  0  0  0  0
 14 39  1  0  0  0  0
 15 40  1  0  0  0  0
 15 41  1  0  0  0  0
 15 42  1  0  0  0  0
 19 43  1  0  0  0  0
 19 44  1  0  0  0  0
 19 45  1  0  0  0  0
M  CHG  1   1   1
M  END
