59

C          1.16852        0.10706        0.41008
C          0.80482        1.58174        0.50151
C          1.06870        2.36227       -0.79003
C          0.35799        1.83067       -2.03898
C         -1.17001        1.77547       -1.94291
C         -1.87001        3.13951       -1.89393
C         -1.68029        4.03031       -3.12810
C         -1.93621        3.40371       -4.50544
N         -3.36885        3.26316       -4.92494
C         -4.06384        4.52618       -4.97152
C         -5.20243        4.41427       -4.28351
N         -5.32558        3.17620       -3.70861
C         -4.25911        2.30391       -4.15329
C         -6.46392        2.63567       -2.96576
C         -6.45812        3.09754       -1.50450
P         -6.85258        4.88446       -1.51954
O         -8.01696        4.60882       -0.56995
O         -5.45327        5.20571       -0.71090
C         -5.10064        4.84393        0.61328
C         -6.20854        4.81346        1.64022
O         -7.22548        6.57373       -1.53375
C         -6.24185        7.52611       -1.89420
C         -5.96240        8.40212       -0.68644
H          0.52150       -0.42365       -0.29478
H          1.05071       -0.37105        1.38780
H          2.20767       -0.02298        0.09189
H         -0.24480        1.68108        0.79871
H          1.39563        2.03658        1.30575
H          0.79392        3.41120       -0.62930
H          2.14882        2.35892       -0.98476
H          0.65572        2.44178       -2.89885
H          0.72830        0.82200       -2.25817
H         -1.54507        1.19802       -2.79450
H         -1.46606        1.19978       -1.05907
H         -2.93943        2.98428       -1.72020
H         -1.51985        3.69254       -1.01370
H         -2.27904        4.93950       -2.99872
H         -0.63792        4.37579       -3.12220
H         -1.46850        4.03793       -5.27033
H         -1.47872        2.41554       -4.60739
H         -3.35618        2.88378       -5.87891
H         -3.74551        5.40663       -5.52105
H         -5.96258        5.17889       -4.18090
H         -3.70614        1.82895       -3.34515
H         -4.61764        1.55265       -4.86584
H         -7.39781        2.93389       -3.45605
H         -6.42552        1.54012       -2.98870
H         -7.19891        2.51404       -0.94547
H         -5.47827        2.86630       -1.07921
H         -4.57165        3.88590        0.59366
H         -4.35912        5.58427        0.93456
H         -6.85087        3.94082        1.49300
H         -5.78455        4.73312        2.64634
H         -6.82627        5.71366        1.58827
H         -5.32881        7.04846       -2.26061
H         -6.64640        8.13666       -2.70687
H         -5.58973        7.80740        0.15346
H         -5.22718        9.17620       -0.92074
H         -6.88373        8.88346       -0.33998
