34

C          1.37438       -0.11974       -0.27703
C          0.50626       -1.36160       -0.17219
N          0.86387       -2.28920        0.95057
C          0.40739       -3.55461        0.99474
C         -0.56275       -4.04212       -0.04237
C          0.10837       -5.00742       -1.01557
C          0.16843       -6.44044       -0.49149
C          0.93978       -6.61090        0.81479
C          0.33740       -5.83802        1.98095
N          0.78813       -4.42033        1.94219
C          1.75120       -4.01542        2.98174
C          1.55637       -2.55961        3.29667
C          1.76104       -1.79105        2.01787
H          1.19872        0.56649        0.55659
H          1.13442        0.42526       -1.19609
H          2.43803       -0.37450       -0.30377
H         -0.54150       -1.06828       -0.04788
H          0.61872       -1.91044       -1.11360
H         -0.99880       -3.21939       -0.61409
H         -1.43105       -4.50745        0.43880
H          1.11672       -4.65814       -1.26812
H         -0.46719       -5.01902       -1.94929
H         -0.85266       -6.82059       -0.36025
H          0.63515       -7.07201       -1.25730
H          0.93187       -7.67843        1.06696
H          1.98836       -6.32546        0.66915
H          0.68234       -6.29188        2.91700
H         -0.75638       -5.88023        2.00317
H          2.76280       -4.22577        2.61672
H          1.58707       -4.60397        3.89072
H          2.26709       -2.22977        4.06130
H          0.54404       -2.38815        3.68144
H          2.79475       -1.87282        1.66355
H          1.54257       -0.73989        2.22484
