27

C          0.85610        1.11410        0.40226
C          0.53535       -0.09551        1.27101
O          1.26243       -0.21973        2.49611
C          2.50716        0.26594        2.47454
N          3.42336       -0.45537        1.81473
C          4.78147       -0.00551        1.48128
C          3.11904       -1.84062        1.37770
N          2.66142        1.40663        3.16186
C          1.49274        1.97226        3.88733
C          3.93856        2.08346        3.41872
H          0.74080        2.04837        0.95803
H          0.18752        1.14471       -0.46361
H          1.88468        1.07793        0.03041
H         -0.52332       -0.04869        1.54967
H          0.65395       -1.01494        0.68993
H          5.43418       -0.11925        2.34938
H          5.18747       -0.61305        0.66500
H          4.76015        1.02510        1.12238
H          2.35507       -2.29832        2.01244
H          2.79651       -1.82492        0.33340
H          4.02092       -2.45585        1.46424
H          1.29597        1.36175        4.77337
H          1.69791        3.00108        4.19885
H          0.60891        2.00083        3.24594
H          4.68453        1.36202        3.75739
H          4.26461        2.60880        2.51856
H          3.83240        2.82262        4.21946
