 xtb: 6.7.1 (edcfbbe)
          12202406553D

 47 49  0     0  0            999 V2000
    1.6912   -0.4695   -0.1653 C   0  0  0  0  0  0  0  0  0  0  0  0
    1.0388   -1.6579    0.5301 C   0  0  0  0  0  0  0  0  0  0  0  0
    1.2755   -1.6800    2.0404 C   0  0  0  0  0  0  0  0  0  0  0  0
    0.5569   -0.5682    2.8037 C   0  0  0  0  0  0  0  0  0  0  0  0
   -1.2749   -0.6675    2.8415 P   0  0  0  0  0  0  0  0  0  0  0  0
   -1.8157   -2.3210    3.3287 C   0  0  0  0  0  0  0  0  0  0  0  0
   -2.4373   -2.5200    4.5589 C   0  0  0  0  0  0  0  0  0  0  0  0
   -2.8323   -3.7932    4.9300 C   0  0  0  0  0  0  0  0  0  0  0  0
   -2.6127   -4.8664    4.0815 C   0  0  0  0  0  0  0  0  0  0  0  0
   -2.0043   -4.6679    2.8513 C   0  0  0  0  0  0  0  0  0  0  0  0
   -1.6064   -3.4002    2.4687 C   0  0  0  0  0  0  0  0  0  0  0  0
   -1.8210    0.5382    4.0720 C   0  0  0  0  0  0  0  0  0  0  0  0
   -2.8476    1.4298    3.7729 C   0  0  0  0  0  0  0  0  0  0  0  0
   -3.2652    2.3407    4.7274 C   0  0  0  0  0  0  0  0  0  0  0  0
   -2.6704    2.3609    5.9785 C   0  0  0  0  0  0  0  0  0  0  0  0
   -1.6572    1.4642    6.2831 C   0  0  0  0  0  0  0  0  0  0  0  0
   -1.2305    0.5522    5.3359 C   0  0  0  0  0  0  0  0  0  0  0  0
   -1.9858   -0.1969    1.2501 C   0  0  0  0  0  0  0  0  0  0  0  0
   -1.5592    0.9971    0.6690 C   0  0  0  0  0  0  0  0  0  0  0  0
   -2.0885    1.3963   -0.5432 C   0  0  0  0  0  0  0  0  0  0  0  0
   -3.0467    0.6150   -1.1725 C   0  0  0  0  0  0  0  0  0  0  0  0
   -3.4878   -0.5588   -0.5828 C   0  0  0  0  0  0  0  0  0  0  0  0
   -2.9637   -0.9690    0.6311 C   0  0  0  0  0  0  0  0  0  0  0  0
    1.2491    0.4730    0.1477 H   0  0  0  0  0  0  0  0  0  0  0  0
    1.5630   -0.5535   -1.2409 H   0  0  0  0  0  0  0  0  0  0  0  0
    2.7568   -0.4414    0.0480 H   0  0  0  0  0  0  0  0  0  0  0  0
   -0.0355   -1.6504    0.3223 H   0  0  0  0  0  0  0  0  0  0  0  0
    1.4519   -2.5763    0.1093 H   0  0  0  0  0  0  0  0  0  0  0  0
    0.9737   -2.6482    2.4475 H   0  0  0  0  0  0  0  0  0  0  0  0
    2.3463   -1.5713    2.2271 H   0  0  0  0  0  0  0  0  0  0  0  0
    0.8767   -0.5826    3.8506 H   0  0  0  0  0  0  0  0  0  0  0  0
    0.8117    0.4134    2.3940 H   0  0  0  0  0  0  0  0  0  0  0  0
   -2.6169   -1.6839    5.2192 H   0  0  0  0  0  0  0  0  0  0  0  0
   -3.3139   -3.9458    5.8832 H   0  0  0  0  0  0  0  0  0  0  0  0
   -2.9204   -5.8576    4.3755 H   0  0  0  0  0  0  0  0  0  0  0  0
   -1.8407   -5.5022    2.1869 H   0  0  0  0  0  0  0  0  0  0  0  0
   -1.1460   -3.2492    1.5035 H   0  0  0  0  0  0  0  0  0  0  0  0
   -3.3149    1.4118    2.7987 H   0  0  0  0  0  0  0  0  0  0  0  0
   -4.0574    3.0344    4.4927 H   0  0  0  0  0  0  0  0  0  0  0  0
   -2.9979    3.0732    6.7194 H   0  0  0  0  0  0  0  0  0  0  0  0
   -1.1996    1.4747    7.2601 H   0  0  0  0  0  0  0  0  0  0  0  0
   -0.4489   -0.1527    5.5834 H   0  0  0  0  0  0  0  0  0  0  0  0
   -0.8280    1.6142    1.1732 H   0  0  0  0  0  0  0  0  0  0  0  0
   -1.7563    2.3171   -0.9969 H   0  0  0  0  0  0  0  0  0  0  0  0
   -3.4550    0.9269   -2.1209 H   0  0  0  0  0  0  0  0  0  0  0  0
   -4.2432   -1.1575   -1.0674 H   0  0  0  0  0  0  0  0  0  0  0  0
   -3.3115   -1.8811    1.0947 H   0  0  0  0  0  0  0  0  0  0  0  0
  1  2  1  0  0  0  0
  2  3  1  0  0  0  0
  3  4  1  0  0  0  0
  4  5  1  0  0  0  0
  5  6  1  0  0  0  0
  6  7  4  0  0  0  0
  7  8  4  0  0  0  0
  8  9  4  0  0  0  0
  9 10  4  0  0  0  0
  6 11  4  0  0  0  0
 10 11  4  0  0  0  0
  5 12  1  0  0  0  0
 12 13  4  0  0  0  0
 13 14  4  0  0  0  0
 14 15  4  0  0  0  0
 15 16  4  0  0  0  0
 12 17  4  0  0  0  0
 16 17  4  0  0  0  0
  5 18  1  0  0  0  0
 18 19  4  0  0  0  0
 19 20  4  0  0  0  0
 20 21  4  0  0  0  0
 21 22  4  0  0  0  0
 18 23  4  0  0  0  0
 22 23  4  0  0  0  0
  1 24  1  0  0  0  0
  1 25  1  0  0  0  0
  1 26  1  0  0  0  0
  2 27  1  0  0  0  0
  2 28  1  0  0  0  0
  3 29  1  0  0  0  0
  3 30  1  0  0  0  0
  4 31  1  0  0  0  0
  4 32  1  0  0  0  0
  7 33  1  0  0  0  0
  8 34  1  0  0  0  0
  9 35  1  0  0  0  0
 10 36  1  0  0  0  0
 11 37  1  0  0  0  0
 13 38  1  0  0  0  0
 14 39  1  0  0  0  0
 15 40  1  0  0  0  0
 16 41  1  0  0  0  0
 17 42  1  0  0  0  0
 19 43  1  0  0  0  0
 20 44  1  0  0  0  0
 21 45  1  0  0  0  0
 22 46  1  0  0  0  0
 23 47  1  0  0  0  0
M  CHG  1   1   1
M  END
