 xtb: 6.7.1 (edcfbbe)
          12202406553D

 36 37  0     0  0            999 V2000
   -0.3881    0.2761    0.0316 C   0  0  0  0  0  0  0  0  0  0  0  0
    0.9208    0.5770    0.4559 O   0  0  0  0  0  0  0  0  0  0  0  0
    1.1079    1.2723    1.6087 C   0  0  0  0  0  0  0  0  0  0  0  0
    0.0626    1.8460    2.3228 C   0  0  0  0  0  0  0  0  0  0  0  0
    0.3163    2.5752    3.4758 C   0  0  0  0  0  0  0  0  0  0  0  0
   -0.8153    3.2392    4.2231 C   0  0  0  0  0  0  0  0  0  0  0  0
   -1.0310    4.5773    3.6960 N   0  0  0  0  0  0  0  0  0  0  0  0
   -2.0684    4.9796    2.9221 C   0  0  0  0  0  0  0  0  0  0  0  0
   -1.8506    6.2830    2.5741 C   0  0  0  0  0  0  0  0  0  0  0  0
   -0.6728    6.6342    3.1468 N   0  0  0  0  0  0  0  0  0  0  0  0
   -0.1837    5.5974    3.8217 C   0  0  0  0  0  0  0  0  0  0  0  0
   -0.0473    7.8311    3.0887 O   0  0  0  0  0  0  0  0  0  0  0  0
    1.6157    2.7353    3.9100 C   0  0  0  0  0  0  0  0  0  0  0  0
    2.6867    2.1637    3.2204 C   0  0  0  0  0  0  0  0  0  0  0  0
    2.4424    1.4241    2.0477 C   0  0  0  0  0  0  0  0  0  0  0  0
    3.5212    0.9453    1.3703 O   0  0  0  0  0  0  0  0  0  0  0  0
    3.4523   -0.2815    0.6643 C   0  0  0  0  0  0  0  0  0  0  0  0
    3.8857    2.4274    3.7824 O   0  0  0  0  0  0  0  0  0  0  0  0
    5.0636    1.7254    3.4276 C   0  0  0  0  0  0  0  0  0  0  0  0
   -0.9364    1.1791   -0.2553 H   0  0  0  0  0  0  0  0  0  0  0  0
   -0.9455   -0.2688    0.7988 H   0  0  0  0  0  0  0  0  0  0  0  0
   -0.2690   -0.3597   -0.8440 H   0  0  0  0  0  0  0  0  0  0  0  0
   -0.9519    1.7280    1.9800 H   0  0  0  0  0  0  0  0  0  0  0  0
   -1.7443    2.6799    4.1082 H   0  0  0  0  0  0  0  0  0  0  0  0
   -0.5697    3.3182    5.2840 H   0  0  0  0  0  0  0  0  0  0  0  0
   -2.8899    4.3395    2.6710 H   0  0  0  0  0  0  0  0  0  0  0  0
   -2.4421    6.9494    1.9791 H   0  0  0  0  0  0  0  0  0  0  0  0
    0.7443    5.5993    4.3589 H   0  0  0  0  0  0  0  0  0  0  0  0
   -0.5467    8.4541    2.5340 H   0  0  0  0  0  0  0  0  0  0  0  0
    1.8488    3.2709    4.8161 H   0  0  0  0  0  0  0  0  0  0  0  0
    2.8949   -1.0351    1.2232 H   0  0  0  0  0  0  0  0  0  0  0  0
    3.0050   -0.1529   -0.3218 H   0  0  0  0  0  0  0  0  0  0  0  0
    4.4879   -0.6024    0.5547 H   0  0  0  0  0  0  0  0  0  0  0  0
    4.9354    0.6473    3.5406 H   0  0  0  0  0  0  0  0  0  0  0  0
    5.3787    1.9530    2.4090 H   0  0  0  0  0  0  0  0  0  0  0  0
    5.8164    2.0755    4.1329 H   0  0  0  0  0  0  0  0  0  0  0  0
  1  2  1  0  0  0  0
  2  3  1  0  0  0  0
  3  4  4  0  0  0  0
  4  5  4  0  0  0  0
  5  6  1  0  0  0  0
  6  7  1  0  0  0  0
  7  8  4  0  0  0  0
  8  9  2  0  0  0  0
  9 10  4  0  0  0  0
  7 11  4  0  0  0  0
 10 11  4  0  0  0  0
 10 12  1  0  0  0  0
  5 13  4  0  0  0  0
 13 14  4  0  0  0  0
  3 15  4  0  0  0  0
 14 15  4  0  0  0  0
 15 16  1  0  0  0  0
 16 17  1  0  0  0  0
 14 18  1  0  0  0  0
 18 19  1  0  0  0  0
  1 20  1  0  0  0  0
  1 21  1  0  0  0  0
  1 22  1  0  0  0  0
  4 23  1  0  0  0  0
  6 24  1  0  0  0  0
  6 25  1  0  0  0  0
  8 26  1  0  0  0  0
  9 27  1  0  0  0  0
 11 28  1  0  0  0  0
 12 29  1  0  0  0  0
 13 30  1  0  0  0  0
 17 31  1  0  0  0  0
 17 32  1  0  0  0  0
 17 33  1  0  0  0  0
 19 34  1  0  0  0  0
 19 35  1  0  0  0  0
 19 36  1  0  0  0  0
M  CHG  1   1   1
M  END
