16

C          2.45543        0.56594       -0.01338
N          1.08270        0.07748       -0.01708
C          0.68310       -1.24875       -0.01265
C         -0.68344       -1.24860       -0.01994
N         -1.08269        0.07772       -0.02736
C          0.00010        0.86942       -0.02502
C         -2.45530        0.56639       -0.03943
H          2.61101        1.19107       -0.89667
H          2.61807        1.15633        0.89221
H          3.15687       -0.27223       -0.03303
H          1.42774       -2.02628       -0.00551
H         -1.42829       -2.02596       -0.02092
H          0.00025        1.95359       -0.02939
H         -2.60557        1.22259        0.82197
H         -2.62318        1.12427       -0.96446
H         -3.15673       -0.27028        0.01455
