59

C          1.23300       -0.52746       -0.34962
C          1.22514       -0.78268        1.14994
C          1.62282        0.43998        1.98137
C          0.73956        1.67844        1.79937
C         -0.74805        1.47340        2.10003
C         -1.07516        1.05735        3.53852
C         -0.64894        2.04988        4.62740
C         -1.16744        3.48361        4.45996
C         -2.68754        3.62254        4.32350
C         -3.49131        3.22331        5.56598
C         -3.37999        4.18548        6.75242
C         -3.98185        5.57366        6.53396
P         -5.73541        5.77177        6.70496
C         -6.27351        5.12255        8.27774
C         -5.57306        5.67844        9.50156
C         -6.15931        7.49985        6.67520
C         -5.49489        8.34150        5.60373
C         -6.67492        4.90668        5.47457
C         -6.36520        5.21221        4.02548
H          0.45887        0.18932       -0.63912
H          1.03886       -1.45925       -0.89054
H          2.20312       -0.14119       -0.67766
H          0.23782       -1.14687        1.45386
H          1.93243       -1.59195        1.36836
H          1.63836        0.15435        3.03971
H          2.65462        0.71579        1.72915
H          1.13418        2.48269        2.43137
H          0.83736        2.04224        0.76942
H         -1.27943        2.40099        1.85776
H         -1.15868        0.71942        1.41833
H         -2.15621        0.88767        3.61157
H         -0.61392        0.08600        3.75265
H         -0.97310        1.65789        5.59883
H          0.44629        2.08237        4.67550
H         -0.81482        4.08455        5.30599
H         -0.70159        3.92721        3.57175
H         -2.91336        4.65688        4.04578
H         -3.03538        3.01681        3.47933
H         -4.54010        3.12115        5.27914
H         -3.18206        2.22519        5.89628
H         -3.86000        3.71961        7.61958
H         -2.32246        4.30012        7.01650
H         -3.53115        6.23637        7.28358
H         -3.66383        5.97918        5.56997
H         -7.34939        5.30737        8.37487
H         -6.14854        4.03424        8.26675
H         -5.72675        6.75728        9.58789
H         -5.96045        5.20699       10.40993
H         -4.49596        5.49634        9.45452
H         -7.24694        7.59069        6.57919
H         -5.89867        7.94166        7.64223
H         -5.72564        7.97525        4.60241
H         -5.83300        9.38021        5.67134
H         -4.40732        8.33164        5.71998
H         -6.55433        3.83145        5.64011
H         -7.73832        5.10957        5.64792
H         -5.29316        5.15668        3.82594
H         -6.87644        4.50173        3.36840
H         -6.70864        6.21373        3.75679
