24

C          1.31328       -0.39093        0.47589
C          0.67576        0.50247        1.52954
C          0.92789        1.99449        1.29611
C          0.30265        2.56962        0.02773
N         -1.17327        2.65143        0.15912
C         -1.95610        1.69603       -0.39559
C         -3.34095        1.77072       -0.30004
C         -3.92187        2.84380        0.36256
C         -3.10828        3.82198        0.91793
C         -1.72813        3.70649        0.80320
H          0.85443       -0.24878       -0.50637
H          1.18792       -1.44336        0.75009
H          2.38595       -0.19069        0.38833
H         -0.39817        0.29707        1.58758
H          1.09564        0.23300        2.50641
H          0.56097        2.54662        2.16975
H          2.01107        2.16295        1.25505
H          0.66029        3.59182       -0.14474
H          0.54361        1.98945       -0.86798
H         -1.46538        0.87395       -0.90843
H         -3.96529        0.99690       -0.74189
H         -5.00570        2.91878        0.44374
H         -3.54807        4.67162        1.43623
H         -1.05723        4.45155        1.22173
