 xtb: 6.7.1 (edcfbbe)
          12202406553D

 13 15  0     0  0            999 V2000
    1.4102   -0.6733   -0.0966 N   0  0  0  0  0  0  0  0  0  0  0  0
    2.3182   -0.0583    0.0560 N   0  0  0  0  0  0  0  0  0  0  0  0
    3.3546    0.5645    0.0042 N   0  0  0  0  0  0  0  0  0  0  0  0
    3.9946    1.2701    0.9088 C   0  0  0  0  0  0  0  0  0  0  0  0
    3.7969    1.5641    2.1203 N   0  0  0  0  0  0  0  0  0  0  0  0
    4.8726    2.3740    2.5337 C   0  0  0  0  0  0  0  0  0  0  0  0
    5.7551    2.6025    1.6065 N   0  0  0  0  0  0  0  0  0  0  0  0
    5.3237    1.9371    0.4509 N   0  0  0  0  0  0  0  0  0  0  0  0
    4.9632    2.8523    3.7586 N   0  0  0  0  0  0  0  0  0  0  0  0
    4.2518    2.7433    4.7216 N   0  0  0  0  0  0  0  0  0  0  0  0
    3.7368    2.7635    5.7050 N   0  0  0  0  0  0  0  0  0  0  0  0
    5.1923    2.6013   -0.3311 H   0  0  0  0  0  0  0  0  0  0  0  0
    6.0310    1.2524    0.1332 H   0  0  0  0  0  0  0  0  0  0  0  0
  1  2  3  0  0  0  0
  1  3  1  0  0  0  0
  2  3  4  0  0  0  0
  3  4  4  0  0  0  0
  4  5  2  0  0  0  0
  5  6  1  0  0  0  0
  6  7  2  0  0  0  0
  4  8  1  0  0  0  0
  7  8  1  0  0  0  0
  6  9  4  0  0  0  0
  9 10  4  0  0  0  0
  9 11  1  0  0  0  0
 10 11  3  0  0  0  0
  8 12  1  0  0  0  0
  8 13  1  0  0  0  0
M  CHG  1   1   1
M  END
