17

C          0.90789       -0.02811       -0.00637
P          0.32082       -0.31818        1.62857
C          0.90788        0.95269        2.69726
C         -1.44039       -0.31818        1.62857
C          0.90789       -1.87913        2.19483
H          0.55701        0.93699       -0.38306
H          0.55702       -0.80471       -0.69207
H          2.00131       -0.02307       -0.03477
H          0.55700        1.93482        2.36755
H          0.55700        0.79635        3.72140
H          2.00131        0.97477        2.71583
H         -1.83206       -1.09983        0.97128
H         -1.83206       -0.49660        2.63414
H         -1.83206        0.64187        1.28029
H          0.55702       -2.68789        1.54738
H          2.00131       -1.90624        2.20468
H          0.55701       -2.08465        3.21025
