 xtb: 6.7.1 (edcfbbe)
          12202406553D

 17 16  0     0  0            999 V2000
    0.9234   -0.0205   -0.0496 C   0  0  0  0  0  0  0  0  0  0  0  0
    0.3208   -0.3183    1.6286 P   0  0  0  0  0  0  0  0  0  0  0  0
    0.9234    0.9862    2.7255 C   0  0  0  0  0  0  0  0  0  0  0  0
   -1.4870   -0.3180    1.6286 C   0  0  0  0  0  0  0  0  0  0  0  0
    0.9235   -1.9205    2.2098 C   0  0  0  0  0  0  0  0  0  0  0  0
    0.5630    0.9439   -0.4054 H   0  0  0  0  0  0  0  0  0  0  0  0
    0.5635   -0.8039   -0.7155 H   0  0  0  0  0  0  0  0  0  0  0  0
    2.0127   -0.0191   -0.0559 H   0  0  0  0  0  0  0  0  0  0  0  0
    0.5630    1.9545    2.3802 H   0  0  0  0  0  0  0  0  0  0  0  0
    0.5633    0.8119    3.7388 H   0  0  0  0  0  0  0  0  0  0  0  0
    2.0127    0.9913    2.7296 H   0  0  0  0  0  0  0  0  0  0  0  0
   -1.8563   -1.1023    0.9690 H   0  0  0  0  0  0  0  0  0  0  0  0
   -1.8561   -0.4970    2.6377 H   0  0  0  0  0  0  0  0  0  0  0  0
   -1.8558    0.6455    1.2791 H   0  0  0  0  0  0  0  0  0  0  0  0
    0.5636   -2.7109    1.5523 H   0  0  0  0  0  0  0  0  0  0  0  0
    2.0128   -1.9263    2.2120 H   0  0  0  0  0  0  0  0  0  0  0  0
    0.5634   -2.1056    3.2211 H   0  0  0  0  0  0  0  0  0  0  0  0
  1  2  1  0  0  0  0
  2  3  1  0  0  0  0
  2  4  1  0  0  0  0
  2  5  1  0  0  0  0
  1  6  1  0  0  0  0
  1  7  1  0  0  0  0
  1  8  1  0  0  0  0
  3  9  1  0  0  0  0
  3 10  1  0  0  0  0
  3 11  1  0  0  0  0
  4 12  1  0  0  0  0
  4 13  1  0  0  0  0
  4 14  1  0  0  0  0
  5 15  1  0  0  0  0
  5 16  1  0  0  0  0
  5 17  1  0  0  0  0
M  CHG  1   1   1
M  END
