 xtb: 6.7.1 (edcfbbe)
          12202406573D

 45 48  0     0  0            999 V2000
    1.4163   -0.2601    0.2330 C   0  0  0  0  0  0  0  0  0  0  0  0
    0.9672    1.0088    0.5987 C   0  0  0  0  0  0  0  0  0  0  0  0
   -0.3849    1.2922    0.5529 C   0  0  0  0  0  0  0  0  0  0  0  0
   -1.2848    0.3181    0.1466 C   0  0  0  0  0  0  0  0  0  0  0  0
   -0.8366   -0.9430   -0.2126 C   0  0  0  0  0  0  0  0  0  0  0  0
    0.5148   -1.2388   -0.1722 C   0  0  0  0  0  0  0  0  0  0  0  0
    3.1901   -0.5857    0.2666 P   0  0  0  0  0  0  0  0  0  0  0  0
    3.9782    0.1234   -1.1929 C   0  0  0  0  0  0  0  0  0  0  0  0
    5.2510   -0.3260   -1.5450 C   0  0  0  0  0  0  0  0  0  0  0  0
    5.8849    0.2176   -2.6465 C   0  0  0  0  0  0  0  0  0  0  0  0
    5.2547    1.2010   -3.3946 C   0  0  0  0  0  0  0  0  0  0  0  0
    3.9888    1.6436   -3.0448 C   0  0  0  0  0  0  0  0  0  0  0  0
    3.3441    1.1085   -1.9432 C   0  0  0  0  0  0  0  0  0  0  0  0
    3.8689    0.1523    1.7659 C   0  0  0  0  0  0  0  0  0  0  0  0
    5.0937    0.8119    1.7501 C   0  0  0  0  0  0  0  0  0  0  0  0
    5.5964    1.3391    2.9269 C   0  0  0  0  0  0  0  0  0  0  0  0
    4.8844    1.2088    4.1089 C   0  0  0  0  0  0  0  0  0  0  0  0
    3.6622    0.5529    4.1224 C   0  0  0  0  0  0  0  0  0  0  0  0
    3.1490    0.0227    2.9537 C   0  0  0  0  0  0  0  0  0  0  0  0
    3.4922   -2.3638    0.2588 C   0  0  0  0  0  0  0  0  0  0  0  0
    3.8121   -3.0428    1.4301 C   0  0  0  0  0  0  0  0  0  0  0  0
    4.0041   -4.4129    1.3901 C   0  0  0  0  0  0  0  0  0  0  0  0
    3.8760   -5.0996    0.1931 C   0  0  0  0  0  0  0  0  0  0  0  0
    3.5605   -4.4204   -0.9747 C   0  0  0  0  0  0  0  0  0  0  0  0
    3.3686   -3.0519   -0.9484 C   0  0  0  0  0  0  0  0  0  0  0  0
    1.6763    1.7592    0.9229 H   0  0  0  0  0  0  0  0  0  0  0  0
   -0.7377    2.2718    0.8358 H   0  0  0  0  0  0  0  0  0  0  0  0
   -2.3396    0.5427    0.1137 H   0  0  0  0  0  0  0  0  0  0  0  0
   -1.5403   -1.6993   -0.5235 H   0  0  0  0  0  0  0  0  0  0  0  0
    0.8674   -2.2231   -0.4452 H   0  0  0  0  0  0  0  0  0  0  0  0
    5.7301   -1.1006   -0.9611 H   0  0  0  0  0  0  0  0  0  0  0  0
    6.8688   -0.1273   -2.9239 H   0  0  0  0  0  0  0  0  0  0  0  0
    5.7516    1.6206   -4.2554 H   0  0  0  0  0  0  0  0  0  0  0  0
    3.5002    2.4049   -3.6321 H   0  0  0  0  0  0  0  0  0  0  0  0
    2.3542    1.4460   -1.6712 H   0  0  0  0  0  0  0  0  0  0  0  0
    5.6425    0.9170    0.8249 H   0  0  0  0  0  0  0  0  0  0  0  0
    6.5446    1.8536    2.9202 H   0  0  0  0  0  0  0  0  0  0  0  0
    5.2808    1.6226    5.0230 H   0  0  0  0  0  0  0  0  0  0  0  0
    3.1088    0.4565    5.0436 H   0  0  0  0  0  0  0  0  0  0  0  0
    2.1925   -0.4834    2.9522 H   0  0  0  0  0  0  0  0  0  0  0  0
    3.9163   -2.5025    2.3604 H   0  0  0  0  0  0  0  0  0  0  0  0
    4.2551   -4.9443    2.2949 H   0  0  0  0  0  0  0  0  0  0  0  0
    4.0258   -6.1678    0.1682 H   0  0  0  0  0  0  0  0  0  0  0  0
    3.4658   -4.9577   -1.9057 H   0  0  0  0  0  0  0  0  0  0  0  0
    3.1315   -2.5114   -1.8556 H   0  0  0  0  0  0  0  0  0  0  0  0
  1  2  4  0  0  0  0
  2  3  4  0  0  0  0
  3  4  4  0  0  0  0
  4  5  4  0  0  0  0
  1  6  4  0  0  0  0
  5  6  4  0  0  0  0
  1  7  1  0  0  0  0
  7  8  1  0  0  0  0
  8  9  4  0  0  0  0
  9 10  4  0  0  0  0
 10 11  4  0  0  0  0
 11 12  4  0  0  0  0
  8 13  4  0  0  0  0
 12 13  4  0  0  0  0
  7 14  1  0  0  0  0
 14 15  4  0  0  0  0
 15 16  4  0  0  0  0
 16 17  4  0  0  0  0
 17 18  4  0  0  0  0
 14 19  4  0  0  0  0
 18 19  4  0  0  0  0
  7 20  1  0  0  0  0
 20 21  4  0  0  0  0
 21 22  4  0  0  0  0
 22 23  4  0  0  0  0
 23 24  4  0  0  0  0
 20 25  4  0  0  0  0
 24 25  4  0  0  0  0
  2 26  1  0  0  0  0
  3 27  1  0  0  0  0
  4 28  1  0  0  0  0
  5 29  1  0  0  0  0
  6 30  1  0  0  0  0
  9 31  1  0  0  0  0
 10 32  1  0  0  0  0
 11 33  1  0  0  0  0
 12 34  1  0  0  0  0
 13 35  1  0  0  0  0
 15 36  1  0  0  0  0
 16 37  1  0  0  0  0
 17 38  1  0  0  0  0
 18 39  1  0  0  0  0
 19 40  1  0  0  0  0
 21 41  1  0  0  0  0
 22 42  1  0  0  0  0
 23 43  1  0  0  0  0
 24 44  1  0  0  0  0
 25 45  1  0  0  0  0
M  CHG  1   1   1
M  END
