41

C         -0.23956        0.31894        1.12079
C         -0.08649        1.48029        0.18907
N         -0.52897        1.56124       -1.09511
C         -1.18762        0.49975       -1.86887
C         -0.28975       -0.15402       -2.91517
C          0.72264       -1.15779       -2.36737
F          0.14395       -1.82243       -1.33327
F          0.92477       -2.08742       -3.34257
C          2.07056       -0.57277       -1.95191
F          2.60741        0.11242       -2.99734
F          1.88127        0.35656       -0.97422
C          3.01613       -1.64063       -1.44857
F          2.44776       -2.29328       -0.39233
F          3.24827       -2.57925       -2.40094
C          4.30910       -0.98334       -1.00575
F          4.92479       -0.32414       -2.01229
F          4.09055       -0.07495       -0.01739
F          5.19022       -1.88480       -0.51527
C         -0.35448        2.86004       -1.55813
C          0.36205        3.52426       -0.61243
N          0.61077        2.62038        0.40412
C          1.53429        2.88310        1.52969
N          1.11146        2.47867        2.86860
C          1.84114        1.75355        3.76859
C          1.03946        1.60654        4.87596
C         -0.15645        2.26980        4.54443
N         -0.12797        2.77990        3.30852
H         -0.62544       -0.54007        0.57916
H         -0.94594        0.61577        1.89502
H          0.74571        0.08070        1.52054
H         -1.64073       -0.23724       -1.20230
H         -2.03034        0.97610       -2.38819
H         -0.94845       -0.70116       -3.60245
H          0.21417        0.60129       -3.52884
H         -0.74357        3.13555       -2.52424
H          0.75978        4.52338       -0.54943
H          2.47380        2.36619        1.30393
H          1.73344        3.95901        1.59042
H          2.84899        1.41574        3.56389
H          1.28544        1.09762        5.79862
H         -1.04649        2.39341        5.15020
