59

C          0.21046       -0.42852       -0.42807
C          0.28003        0.62194        0.63009
N          0.85135        1.84546        0.52290
C          0.70597        2.53278        1.72161
C          0.00470        1.72467        2.56241
N         -0.25084        0.55141        1.87312
C         -0.94011       -0.61354        2.45002
C         -2.21784       -0.90182        1.70556
C         -3.29535       -0.00409        1.74138
C         -4.48026       -0.29266        1.05979
C         -4.59914       -1.47382        0.33003
C         -3.53940       -2.37542        0.28907
C         -2.36014       -2.09737        0.98104
C          1.39976        2.46043       -0.70088
C          2.93140        2.50862       -0.80889
O          3.56040        2.86083        0.41245
C          4.56986        1.98527        0.71133
O          5.29108        2.17584        1.67827
C          4.52132        0.73323       -0.18948
C          3.61531        1.26195       -1.32140
C          5.92030        0.31392       -0.71413
C          6.13022       -0.08582       -2.05311
C          7.38806       -0.48799       -2.51196
C          8.46710       -0.52427       -1.63920
C          8.28320       -0.17389       -0.30600
C          7.02404        0.22959        0.15381
C          3.83813       -0.46538        0.52191
C          3.68863       -1.69471       -0.15383
C          3.14492       -2.81491        0.48122
C          2.72764       -2.73259        1.80461
C          2.85751       -1.53112        2.49286
C          3.40804       -0.41070        1.86092
H         -0.76995       -0.34712       -0.89730
H          0.35934       -1.39643        0.04792
H          0.99718       -0.25190       -1.15527
H          1.10427        3.53001        1.81122
H         -0.35429        1.83869        3.57120
H         -0.25188       -1.46414        2.41780
H         -1.16821       -0.42223        3.50523
H         -3.23216        0.92033        2.31130
H         -5.31982        0.39840        1.10349
H         -5.52422       -1.69838       -0.19721
H         -3.63872       -3.30169       -0.27334
H         -1.55518       -2.82960        0.94649
H          0.95612        1.98770       -1.58278
H          1.02901        3.49506       -0.69854
H          3.15341        3.32055       -1.51444
H          4.20898        1.60146       -2.17975
H          2.92191        0.52384       -1.73144
H          5.31848       -0.11717       -2.77540
H          7.52219       -0.78244       -3.55051
H          9.44596       -0.83886       -1.99271
H          9.12241       -0.22078        0.38457
H          6.92919        0.46618        1.21232
H          4.04294       -1.81654       -1.17611
H          3.08621       -3.76363       -0.04893
H          2.34060       -3.61498        2.30918
H          2.57077       -1.47454        3.54076
H          3.52859        0.48648        2.46532
