20

C          0.99410        0.06278        0.20107
C          0.21925        0.94659        0.84524
C         -1.27854        0.94834        0.81403
N         -1.80539        0.74325        2.18263
C         -1.84648       -0.51015        2.69686
C         -2.34291       -0.73540        3.97519
C         -2.79999        0.33961        4.72632
C         -2.74948        1.61520        4.18724
C         -2.24512        1.80242        2.90550
O         -3.20776        2.63503        4.96295
H          0.59166       -0.74129       -0.40993
H          2.07958        0.13128        0.25739
H          0.70514        1.73446        1.41893
H         -1.65400        1.90395        0.43339
H         -1.69081        0.15248        0.18306
H         -1.47383       -1.32175        2.07751
H         -2.37249       -1.74213        4.38650
H         -3.19251        0.18377        5.73019
H         -2.18268        2.78229        2.44482
H         -3.14173        3.50218        4.52722
