161

C         -0.33726       -1.40631        0.58880
C         -1.85188       -1.49853        0.47108
C         -2.38255       -1.26301       -0.94661
C         -1.98503       -2.35219       -1.95009
C         -2.58201       -2.10346       -3.34834
C         -1.64662       -2.50599       -4.50067
O         -1.16082       -1.33286       -5.19518
C          0.19783       -1.35109       -5.36732
C          0.72488       -1.07022       -6.62369
C          2.13641       -0.94269       -6.84241
C          2.99911       -1.42079       -5.83697
C          2.43483       -1.64458       -4.56470
C          1.09020       -1.41108       -4.31875
O          0.69104       -1.05569       -3.05666
C          1.19524        0.25851       -2.71215
C          0.55642        1.40828       -3.51545
C         -0.95556        1.46012       -3.31496
C         -1.69105        2.29404       -4.36197
C         -3.20191        2.14236       -4.18178
N         -3.94280        3.14749       -4.95700
C         -5.04234        2.95823       -5.75526
N         -5.88567        4.06010       -5.92195
C         -6.75753        4.22750       -7.09662
C         -5.86780        5.18002       -4.96486
N         -5.30645        1.74633       -6.37452
C         -4.24253        0.83145       -6.82187
C         -6.68468        1.28046       -6.60803
C          4.40733       -1.48891       -6.04107
C          5.25548       -2.14028       -5.10547
C          6.63818       -2.01691       -5.11451
O          7.47846       -2.48657       -4.14927
C          6.99312       -2.78672       -2.84208
C          7.39533       -1.70671       -1.83649
C          6.68942       -0.35469       -1.97118
C          5.16193       -0.36684       -1.88869
C          4.54255       -1.12727       -0.71641
C          4.86854       -0.51413        0.63405
C          7.21271       -1.35396       -6.19063
C          6.41044       -0.79341       -7.19323
C          4.98776       -0.83892       -7.15458
C          4.13177       -0.19172       -8.11091
C          2.71952       -0.25999       -7.95252
C          1.92236        0.51018       -8.82195
C          2.46364        1.39541       -9.76060
O          1.57966        2.25936      -10.35001
C          1.30039        3.35283       -9.45262
C          0.18495        4.20412      -10.05288
C         -1.16381        3.47917      -10.12509
C         -1.82391        3.21764       -8.76658
C         -2.23453        4.47278       -7.99253
C         -3.34939        5.25438       -8.66964
C          3.82373        1.38816      -10.01881
C          4.62918        0.58137       -9.20034
O          4.53378        2.09118      -10.95179
C          3.87904        3.01909      -11.81536
C          3.24936        2.33518      -13.02788
C          2.03342        3.06678      -13.60920
C          2.24156        4.56348      -13.85446
C          1.10113        5.20665      -14.65174
C         -0.25010        5.15769      -13.95334
O          8.55781       -1.08917       -6.23315
C          9.33012       -2.24671       -6.57554
C         10.77545       -2.01063       -6.13378
C         11.00540       -2.13771       -4.61958
C         10.95561       -3.59147       -4.13285
C         11.60040       -3.79907       -2.75847
C         10.85782       -3.12377       -1.61909
H          0.16449       -2.18457        0.00719
H         -0.03332       -1.52604        1.63398
H          0.02264       -0.43070        0.25052
H         -2.18834       -2.47378        0.83905
H         -2.28999       -0.74066        1.13237
H         -3.47644       -1.20105       -0.90170
H         -2.02768       -0.28789       -1.29439
H         -0.89860       -2.43020       -1.99646
H         -2.33812       -3.32430       -1.58401
H         -3.49481       -2.70901       -3.41626
H         -2.89890       -1.06307       -3.46378
H         -0.85398       -3.18933       -4.17056
H         -2.23646       -3.05654       -5.24346
H          0.01916       -0.87277       -7.42428
H          3.05676       -1.82811       -3.69582
H          0.97697        0.40608       -1.65037
H          2.28710        0.29579       -2.80383
H          0.99931        2.36019       -3.20020
H          0.78659        1.29727       -4.58016
H         -1.35759        0.44985       -3.34544
H         -1.16999        1.85282       -2.31378
H         -1.40085        3.34698       -4.27001
H         -1.41281        1.97612       -5.37367
H         -3.53770        1.13218       -4.41770
H         -3.46446        2.32097       -3.13294
H         -3.67726        4.10925       -4.79689
H         -7.77363        3.91462       -6.84556
H         -6.77027        5.28380       -7.38526
H         -6.36620        3.66463       -7.94713
H         -5.67901        4.80608       -3.95414
H         -5.09868        5.89653       -5.26413
H         -6.84535        5.67193       -4.95859
H         -4.22655       -0.05467       -6.18223
H         -4.45528        0.52635       -7.85175
H         -3.27263        1.33118       -6.81882
H         -7.37706        1.77929       -5.92475
H         -6.96256        1.45853       -7.64984
H         -6.73929        0.20627       -6.40453
H          4.79505       -2.75600       -4.34285
H          5.92752       -3.00935       -2.78033
H          7.49537       -3.71688       -2.55027
H          7.24296       -2.09461       -0.82295
H          8.46834       -1.51410       -1.94225
H          7.07662        0.30840       -1.18767
H          6.97965        0.10902       -2.92212
H          4.80728        0.67147       -1.87059
H          4.77057       -0.79037       -2.81257
H          3.45275       -1.12814       -0.84246
H          4.85068       -2.17790       -0.72891
H          4.54095        0.52929        0.67802
H          4.35320       -1.06348        1.42850
H          5.94146       -0.55029        0.84225
H          6.93209       -0.26630       -7.98731
H          0.84189        0.53366       -8.71455
H          1.01255        2.99886       -8.45611
H          2.19933        3.97084       -9.33821
H          0.08996        5.13822       -9.49094
H          0.47327        4.47651      -11.07308
H         -1.84395        4.06337      -10.75499
H         -1.03217        2.51816      -10.63724
H         -2.71480        2.59939       -8.93198
H         -1.15647        2.61886       -8.13680
H         -2.58331        4.16517       -7.00242
H         -1.37515        5.12827       -7.82010
H         -4.20536        4.60785       -8.88590
H         -3.69366        6.06320       -8.01724
H         -3.01122        5.70360       -9.60770
H          5.69820        0.62033       -9.39969
H          3.20090        3.67092      -11.26660
H          4.66411        3.69364      -12.17995
H          4.01664        2.24029      -13.80706
H          2.95436        1.30757      -12.78538
H          1.76007        2.57636      -14.55147
H          1.18612        2.92451      -12.92993
H          2.34691        5.09161      -12.89964
H          3.17662        4.71402      -14.40693
H          1.35650        6.25665      -14.83840
H          1.01812        4.72236      -15.63140
H         -0.20954        5.66191      -12.98342
H         -1.00578        5.66544      -14.56149
H         -0.58922        4.12929      -13.79812
H          8.93697       -3.17314       -6.14292
H          9.30680       -2.34831       -7.66728
H         11.43479       -2.71222       -6.65775
H         11.07522       -0.99875       -6.43423
H         11.99667       -1.72344       -4.39723
H         10.27771       -1.52783       -4.07232
H          9.91914       -3.94588       -4.11082
H         11.49157       -4.22878       -4.84678
H         11.64273       -4.87549       -2.55306
H         12.63662       -3.44184       -2.77696
H          9.83299       -3.49876       -1.54798
H         11.35540       -3.33504       -0.66692
H         10.82968       -2.03791       -1.74551
