 xtb: 6.7.1 (edcfbbe)
          12202406553D

 41 42  0     0  0            999 V2000
   -0.0316   -0.2138    1.1739 C   0  0  0  0  0  0  0  0  0  0  0  0
    0.2476    1.0224    0.4309 C   0  0  0  0  0  0  0  0  0  0  0  0
   -0.2456    1.4175   -0.7511 N   0  0  0  0  0  0  0  0  0  0  0  0
   -1.0886    0.6780   -1.6634 C   0  0  0  0  0  0  0  0  0  0  0  0
   -0.3295    0.1448   -2.8875 C   0  0  0  0  0  0  0  0  0  0  0  0
    0.6348   -1.0129   -2.5838 C   0  0  0  0  0  0  0  0  0  0  0  0
    0.2864   -1.6496   -1.4386 F   0  0  0  0  0  0  0  0  0  0  0  0
    0.5792   -1.9337   -3.5604 F   0  0  0  0  0  0  0  0  0  0  0  0
    2.1267   -0.5619   -2.4576 C   0  0  0  0  0  0  0  0  0  0  0  0
    2.5796   -0.2160   -3.6671 F   0  0  0  0  0  0  0  0  0  0  0  0
    2.1879    0.5619   -1.6941 F   0  0  0  0  0  0  0  0  0  0  0  0
    3.0511   -1.6159   -1.7777 C   0  0  0  0  0  0  0  0  0  0  0  0
    2.8227   -1.5333   -0.4450 F   0  0  0  0  0  0  0  0  0  0  0  0
    2.7502   -2.8562   -2.1615 F   0  0  0  0  0  0  0  0  0  0  0  0
    4.5668   -1.3361   -2.0323 C   0  0  0  0  0  0  0  0  0  0  0  0
    4.8890   -1.5784   -3.2901 F   0  0  0  0  0  0  0  0  0  0  0  0
    4.8380   -0.0578   -1.7616 F   0  0  0  0  0  0  0  0  0  0  0  0
    5.3082   -2.0906   -1.2408 F   0  0  0  0  0  0  0  0  0  0  0  0
    0.2405    2.6696   -1.0347 C   0  0  0  0  0  0  0  0  0  0  0  0
    1.0446    3.0331   -0.0095 C   0  0  0  0  0  0  0  0  0  0  0  0
    1.0460    1.9996    0.8861 N   0  0  0  0  0  0  0  0  0  0  0  0
    1.7480    1.9878    2.1630 C   0  0  0  0  0  0  0  0  0  0  0  0
    0.8771    2.3763    3.2259 N   0  0  0  0  0  0  0  0  0  0  0  0
    0.8560    3.5355    3.9314 C   0  0  0  0  0  0  0  0  0  0  0  0
   -0.1796    3.4386    4.8221 C   0  0  0  0  0  0  0  0  0  0  0  0
   -0.7465    2.1761    4.5781 C   0  0  0  0  0  0  0  0  0  0  0  0
   -0.1055    1.5501    3.6168 N   0  0  0  0  0  0  0  0  0  0  0  0
   -0.8673   -0.7638    0.7562 H   0  0  0  0  0  0  0  0  0  0  0  0
   -0.2510    0.0481    2.2164 H   0  0  0  0  0  0  0  0  0  0  0  0
    0.8373   -0.8728    1.1668 H   0  0  0  0  0  0  0  0  0  0  0  0
   -1.5643   -0.1469   -1.1307 H   0  0  0  0  0  0  0  0  0  0  0  0
   -1.8693    1.3523   -2.0252 H   0  0  0  0  0  0  0  0  0  0  0  0
   -1.0656   -0.2495   -3.5922 H   0  0  0  0  0  0  0  0  0  0  0  0
    0.2210    0.9437   -3.3875 H   0  0  0  0  0  0  0  0  0  0  0  0
   -0.0248    3.1984   -1.9265 H   0  0  0  0  0  0  0  0  0  0  0  0
    1.6085    3.9299    0.1429 H   0  0  0  0  0  0  0  0  0  0  0  0
    2.1192    0.9718    2.3406 H   0  0  0  0  0  0  0  0  0  0  0  0
    2.5876    2.6849    2.1028 H   0  0  0  0  0  0  0  0  0  0  0  0
    1.5716    4.3128    3.7612 H   0  0  0  0  0  0  0  0  0  0  0  0
   -0.4891    4.1595    5.5484 H   0  0  0  0  0  0  0  0  0  0  0  0
   -1.5817    1.7135    5.0626 H   0  0  0  0  0  0  0  0  0  0  0  0
  1  2  1  0  0  0  0
  2  3  4  0  0  0  0
  3  4  1  0  0  0  0
  4  5  1  0  0  0  0
  5  6  1  0  0  0  0
  6  7  1  0  0  0  0
  6  8  1  0  0  0  0
  6  9  1  0  0  0  0
  9 10  1  0  0  0  0
  9 11  1  0  0  0  0
  9 12  1  0  0  0  0
 12 13  1  0  0  0  0
 12 14  1  0  0  0  0
 12 15  1  0  0  0  0
 15 16  1  0  0  0  0
 15 17  1  0  0  0  0
 15 18  1  0  0  0  0
  3 19  1  0  0  0  0
 19 20  2  0  0  0  0
  2 21  4  0  0  0  0
 20 21  1  0  0  0  0
 21 22  1  0  0  0  0
 22 23  1  0  0  0  0
 23 24  4  0  0  0  0
 24 25  2  0  0  0  0
 25 26  4  0  0  0  0
 23 27  1  0  0  0  0
 26 27  2  0  0  0  0
  1 28  1  0  0  0  0
  1 29  1  0  0  0  0
  1 30  1  0  0  0  0
  4 31  1  0  0  0  0
  4 32  1  0  0  0  0
  5 33  1  0  0  0  0
  5 34  1  0  0  0  0
 19 35  1  0  0  0  0
 20 36  1  0  0  0  0
 22 37  1  0  0  0  0
 22 38  1  0  0  0  0
 24 39  1  0  0  0  0
 25 40  1  0  0  0  0
 26 41  1  0  0  0  0
M  CHG  1   1   1
M  END
