40

C          0.97520        0.15745       -0.16958
C          0.30718        0.50909       -1.49113
C          0.75297       -0.40418       -2.60751
C          0.25863       -1.70765       -2.69920
C          0.69726       -2.56743       -3.71281
C          1.65736       -2.15074       -4.64712
C          2.11462       -0.82660       -4.57552
C          1.67641        0.03205       -3.55983
N          2.13461       -3.09401       -5.74801
C          1.12885       -2.96378       -6.91201
C          1.41354       -3.81858       -8.12527
C          0.89556       -5.12033       -8.22195
C          1.19004       -5.92113       -9.32657
C          1.99675       -5.43006      -10.34984
C          2.50155       -4.13435      -10.27720
C          2.20929       -3.33024       -9.17442
C          2.20459       -4.52613       -5.21776
C          3.55096       -2.72881       -6.19090
H          0.71480       -0.85658        0.15234
H          0.65467        0.85183        0.61345
H          2.06617        0.21396       -0.24957
H         -0.78293        0.44902       -1.38763
H          0.53346        1.55148       -1.74624
H         -0.47456       -2.06258       -1.97506
H          0.25475       -3.55781       -3.73305
H          2.81594       -0.40944       -5.28996
H          2.06415        1.04988       -3.51717
H          0.13520       -3.21139       -6.51520
H          1.10593       -1.90544       -7.20490
H          0.24866       -5.52766       -7.44735
H          0.78392       -6.92847       -9.39770
H          2.22110       -6.05391      -11.21294
H          3.11701       -3.75010      -11.08854
H          2.60546       -2.31671       -9.15550
H          1.19275       -4.91722       -5.08047
H          2.72779       -5.15093       -5.94840
H          2.76455       -4.52676       -4.27665
H          3.52776       -1.79274       -6.75605
H          4.18853       -2.64689       -5.30426
H          3.93777       -3.52269       -6.83750
