45

C          1.38954       -0.28280        0.16970
C          0.90798        1.00974        0.44203
C         -0.45807        1.29903        0.40740
C         -1.37387        0.29472        0.11635
C         -0.92206       -0.99809       -0.13059
C          0.44663       -1.28274       -0.10018
P          3.16161       -0.61337        0.23306
C          3.99130        0.11741       -1.19120
C          5.04059       -0.55427       -1.83885
C          5.70547        0.01641       -2.92732
C          5.34782        1.28423       -3.37479
C          4.32815        1.97762       -2.73243
C          3.65667        1.39895       -1.65160
C          3.81328        0.13012        1.73564
C          5.06598        0.75613        1.75925
C          5.55749        1.32178        2.93780
C          4.80533        1.26403        4.10902
C          3.56274        0.63663        4.10464
C          3.07227        0.07089        2.92730
C          3.47682       -2.38571        0.26019
C          4.05736       -3.01692        1.36846
C          4.31270       -4.39055        1.35879
C          3.99198       -5.15509        0.24045
C          3.42110       -4.54585       -0.87307
C          3.17155       -3.17257       -0.86376
H          1.60199        1.80605        0.70097
H         -0.80414        2.30830        0.61524
H         -2.43757        0.51455        0.09189
H         -1.63420       -1.79131       -0.34215
H          0.75288       -2.30835       -0.27681
H          5.36438       -1.53448       -1.49679
H          6.50655       -0.52850       -3.41912
H          5.86775        1.73278       -4.21672
H          4.05353        2.97476       -3.06802
H          2.87671        1.97523       -1.16799
H          5.67425        0.80847        0.85976
H          6.53000        1.80714        2.94005
H          5.18912        1.70527        5.02488
H          2.97421        0.58542        5.01690
H          2.10308       -0.42387        2.94193
H          4.32946       -2.44822        2.25331
H          4.76685       -4.86127        2.22724
H          4.19136       -6.22322        0.23568
H          3.17363       -5.13721       -1.75049
H          2.73658       -2.70779       -1.74721
