 xtb: 6.7.1 (edcfbbe)
          12202406553D

 25 25  0     0  0            999 V2000
    1.4057    0.1021   -0.0891 C   0  0  0  0  0  0  0  0  0  0  0  0
    0.6664   -1.1841   -0.4185 C   0  0  0  0  0  0  0  0  0  0  0  0
    0.9660   -2.2627    0.5084 N   0  0  0  0  0  0  0  0  0  0  0  0
    1.5209   -2.1296    1.7481 C   0  0  0  0  0  0  0  0  0  0  0  0
    1.6125   -3.3728    2.2870 C   0  0  0  0  0  0  0  0  0  0  0  0
    1.1107   -4.2505    1.3725 N   0  0  0  0  0  0  0  0  0  0  0  0
    0.7235   -3.5627    0.2904 C   0  0  0  0  0  0  0  0  0  0  0  0
    0.0875   -4.1500   -0.9138 C   0  0  0  0  0  0  0  0  0  0  0  0
   -1.4437   -4.0783   -0.8301 C   0  0  0  0  0  0  0  0  0  0  0  0
    1.0296   -5.6772    1.5513 C   0  0  0  0  0  0  0  0  0  0  0  0
    1.0552    0.5391    0.8418 H   0  0  0  0  0  0  0  0  0  0  0  0
    1.2201    0.8213   -0.8818 H   0  0  0  0  0  0  0  0  0  0  0  0
    2.4780   -0.0661   -0.0300 H   0  0  0  0  0  0  0  0  0  0  0  0
   -0.4130   -1.0030   -0.4034 H   0  0  0  0  0  0  0  0  0  0  0  0
    0.9405   -1.5177   -1.4228 H   0  0  0  0  0  0  0  0  0  0  0  0
    1.8087   -1.1864    2.1606 H   0  0  0  0  0  0  0  0  0  0  0  0
    1.9918   -3.6853    3.2378 H   0  0  0  0  0  0  0  0  0  0  0  0
    0.4224   -3.6164   -1.8050 H   0  0  0  0  0  0  0  0  0  0  0  0
    0.3951   -5.1913   -1.0121 H   0  0  0  0  0  0  0  0  0  0  0  0
   -1.7874   -3.0489   -0.7864 H   0  0  0  0  0  0  0  0  0  0  0  0
   -1.8742   -4.5428   -1.7116 H   0  0  0  0  0  0  0  0  0  0  0  0
   -1.8125   -4.6026    0.0473 H   0  0  0  0  0  0  0  0  0  0  0  0
    0.0084   -6.0263    1.4008 H   0  0  0  0  0  0  0  0  0  0  0  0
    1.6867   -6.1907    0.8478 H   0  0  0  0  0  0  0  0  0  0  0  0
    1.3406   -5.9260    2.5631 H   0  0  0  0  0  0  0  0  0  0  0  0
  1  2  1  0  0  0  0
  2  3  1  0  0  0  0
  3  4  4  0  0  0  0
  4  5  2  0  0  0  0
  5  6  4  0  0  0  0
  3  7  4  0  0  0  0
  6  7  4  0  0  0  0
  7  8  1  0  0  0  0
  8  9  1  0  0  0  0
  6 10  1  0  0  0  0
  1 11  1  0  0  0  0
  1 12  1  0  0  0  0
  1 13  1  0  0  0  0
  2 14  1  0  0  0  0
  2 15  1  0  0  0  0
  4 16  1  0  0  0  0
  5 17  1  0  0  0  0
  8 18  1  0  0  0  0
  8 19  1  0  0  0  0
  9 20  1  0  0  0  0
  9 21  1  0  0  0  0
  9 22  1  0  0  0  0
 10 23  1  0  0  0  0
 10 24  1  0  0  0  0
 10 25  1  0  0  0  0
M  CHG  1   1   1
M  END
