 xtb: 6.7.1 (edcfbbe)
          12202406573D

 27 27  0     0  0            999 V2000
    1.4195    0.0969   -0.1491 C   0  0  0  0  0  0  0  0  0  0  0  0
    0.5605    0.8958    0.8411 C   0  0  0  0  0  0  0  0  0  0  0  0
    0.7382    2.4137    0.7715 C   0  0  0  0  0  0  0  0  0  0  0  0
    0.1373    3.1149   -0.4500 C   0  0  0  0  0  0  0  0  0  0  0  0
   -1.3569    2.8698   -0.6248 C   0  0  0  0  0  0  0  0  0  0  0  0
    0.9327    0.1754   -1.5170 N   0  0  0  0  0  0  0  0  0  0  0  0
   -0.2313   -0.4074   -1.8256 C   0  0  0  0  0  0  0  0  0  0  0  0
   -0.7524   -0.3380   -3.1009 C   0  0  0  0  0  0  0  0  0  0  0  0
   -0.0502    0.3474   -4.0840 C   0  0  0  0  0  0  0  0  0  0  0  0
    1.1616    0.9358   -3.7479 C   0  0  0  0  0  0  0  0  0  0  0  0
    1.6256    0.8332   -2.4516 C   0  0  0  0  0  0  0  0  0  0  0  0
    1.4186   -0.9550    0.1487 H   0  0  0  0  0  0  0  0  0  0  0  0
    2.4463    0.4641   -0.1182 H   0  0  0  0  0  0  0  0  0  0  0  0
   -0.4916    0.6396    0.7201 H   0  0  0  0  0  0  0  0  0  0  0  0
    0.8593    0.5701    1.8383 H   0  0  0  0  0  0  0  0  0  0  0  0
    0.2654    2.8325    1.6612 H   0  0  0  0  0  0  0  0  0  0  0  0
    1.8019    2.6530    0.8319 H   0  0  0  0  0  0  0  0  0  0  0  0
    0.2943    4.1860   -0.3147 H   0  0  0  0  0  0  0  0  0  0  0  0
    0.6666    2.8343   -1.3637 H   0  0  0  0  0  0  0  0  0  0  0  0
   -1.8876    3.1051    0.2938 H   0  0  0  0  0  0  0  0  0  0  0  0
   -1.7479    3.5077   -1.4126 H   0  0  0  0  0  0  0  0  0  0  0  0
   -1.5756    1.8376   -0.8948 H   0  0  0  0  0  0  0  0  0  0  0  0
   -0.7389   -0.9428   -1.0364 H   0  0  0  0  0  0  0  0  0  0  0  0
   -1.6927   -0.8173   -3.3198 H   0  0  0  0  0  0  0  0  0  0  0  0
   -0.4357    0.4161   -5.0890 H   0  0  0  0  0  0  0  0  0  0  0  0
    1.7428    1.4722   -4.4807 H   0  0  0  0  0  0  0  0  0  0  0  0
    2.5649    1.2770   -2.1544 H   0  0  0  0  0  0  0  0  0  0  0  0
  1  2  1  0  0  0  0
  2  3  1  0  0  0  0
  3  4  1  0  0  0  0
  4  5  1  0  0  0  0
  1  6  1  0  0  0  0
  6  7  4  0  0  0  0
  7  8  4  0  0  0  0
  8  9  4  0  0  0  0
  9 10  4  0  0  0  0
  6 11  4  0  0  0  0
 10 11  4  0  0  0  0
  1 12  1  0  0  0  0
  1 13  1  0  0  0  0
  2 14  1  0  0  0  0
  2 15  1  0  0  0  0
  3 16  1  0  0  0  0
  3 17  1  0  0  0  0
  4 18  1  0  0  0  0
  4 19  1  0  0  0  0
  5 20  1  0  0  0  0
  5 21  1  0  0  0  0
  5 22  1  0  0  0  0
  7 23  1  0  0  0  0
  8 24  1  0  0  0  0
  9 25  1  0  0  0  0
 10 26  1  0  0  0  0
 11 27  1  0  0  0  0
M  CHG  1   1   1
M  END
