 xtb: 6.7.1 (edcfbbe)
          12202406573D

 36 36  0     0  0            999 V2000
    0.6810   -0.0575    0.4023 C   0  0  0  0  0  0  0  0  0  0  0  0
    0.3559    1.4205    0.2238 C   0  0  0  0  0  0  0  0  0  0  0  0
    0.9881    2.0298   -1.0292 C   0  0  0  0  0  0  0  0  0  0  0  0
    0.5160    1.4177   -2.3502 C   0  0  0  0  0  0  0  0  0  0  0  0
   -0.9918    1.4985   -2.6026 C   0  0  0  0  0  0  0  0  0  0  0  0
   -1.5839    2.9051   -2.5178 C   0  0  0  0  0  0  0  0  0  0  0  0
   -0.9527    3.9055   -3.4966 C   0  0  0  0  0  0  0  0  0  0  0  0
   -1.2093    3.5286   -4.8614 N   0  0  0  0  0  0  0  0  0  0  0  0
   -0.4298    2.6572   -5.4915 N   0  0  0  0  0  0  0  0  0  0  0  0
   -0.9482    2.4795   -6.6648 C   0  0  0  0  0  0  0  0  0  0  0  0
   -2.0710    3.2380   -6.8058 N   0  0  0  0  0  0  0  0  0  0  0  0
   -2.2107    3.8927   -5.6431 C   0  0  0  0  0  0  0  0  0  0  0  0
   -2.9318    3.3616   -7.9783 C   0  0  0  0  0  0  0  0  0  0  0  0
   -4.1340    3.7925   -7.5145 F   0  0  0  0  0  0  0  0  0  0  0  0
   -2.3624    4.3437   -8.9850 C   0  0  0  0  0  0  0  0  0  0  0  0
    0.2234   -0.6625   -0.3764 H   0  0  0  0  0  0  0  0  0  0  0  0
    0.3092   -0.4082    1.3614 H   0  0  0  0  0  0  0  0  0  0  0  0
    1.7563   -0.2159    0.3759 H   0  0  0  0  0  0  0  0  0  0  0  0
   -0.7274    1.5553    0.2053 H   0  0  0  0  0  0  0  0  0  0  0  0
    0.7341    1.9689    1.0890 H   0  0  0  0  0  0  0  0  0  0  0  0
    0.8034    3.1071   -1.0284 H   0  0  0  0  0  0  0  0  0  0  0  0
    2.0697    1.8925   -0.9691 H   0  0  0  0  0  0  0  0  0  0  0  0
    1.0522    1.8963   -3.1729 H   0  0  0  0  0  0  0  0  0  0  0  0
    0.7960    0.3645   -2.3685 H   0  0  0  0  0  0  0  0  0  0  0  0
   -1.1968    1.0666   -3.5858 H   0  0  0  0  0  0  0  0  0  0  0  0
   -1.5103    0.8809   -1.8692 H   0  0  0  0  0  0  0  0  0  0  0  0
   -2.6607    2.8582   -2.6955 H   0  0  0  0  0  0  0  0  0  0  0  0
   -1.4320    3.3022   -1.5151 H   0  0  0  0  0  0  0  0  0  0  0  0
   -1.3598    4.9039   -3.3301 H   0  0  0  0  0  0  0  0  0  0  0  0
    0.1293    3.9155   -3.3607 H   0  0  0  0  0  0  0  0  0  0  0  0
   -0.5479    1.8266   -7.4136 H   0  0  0  0  0  0  0  0  0  0  0  0
   -3.0047    4.5745   -5.4055 H   0  0  0  0  0  0  0  0  0  0  0  0
   -3.0823    2.3611   -8.4080 H   0  0  0  0  0  0  0  0  0  0  0  0
   -1.4075    3.9912   -9.3638 H   0  0  0  0  0  0  0  0  0  0  0  0
   -3.0580    4.4348   -9.8156 H   0  0  0  0  0  0  0  0  0  0  0  0
   -2.2375    5.3250   -8.5327 H   0  0  0  0  0  0  0  0  0  0  0  0
  1  2  1  0  0  0  0
  2  3  1  0  0  0  0
  3  4  1  0  0  0  0
  4  5  1  0  0  0  0
  5  6  1  0  0  0  0
  6  7  1  0  0  0  0
  7  8  1  0  0  0  0
  8  9  4  0  0  0  0
  9 10  2  0  0  0  0
 10 11  4  0  0  0  0
  8 12  4  0  0  0  0
 11 12  4  0  0  0  0
 11 13  1  0  0  0  0
 13 14  1  0  0  0  0
 13 15  1  0  0  0  0
  1 16  1  0  0  0  0
  1 17  1  0  0  0  0
  1 18  1  0  0  0  0
  2 19  1  0  0  0  0
  2 20  1  0  0  0  0
  3 21  1  0  0  0  0
  3 22  1  0  0  0  0
  4 23  1  0  0  0  0
  4 24  1  0  0  0  0
  5 25  1  0  0  0  0
  5 26  1  0  0  0  0
  6 27  1  0  0  0  0
  6 28  1  0  0  0  0
  7 29  1  0  0  0  0
  7 30  1  0  0  0  0
 10 31  1  0  0  0  0
 12 32  1  0  0  0  0
 13 33  1  0  0  0  0
 15 34  1  0  0  0  0
 15 35  1  0  0  0  0
 15 36  1  0  0  0  0
M  CHG  1   1   1
M  END
