 xtb: 6.7.1 (edcfbbe)
          12202406573D

 30 29  0     0  0            999 V2000
    1.8454   -0.2417   -0.2831 C   0  0  0  0  0  0  0  0  0  0  0  0
    0.5895   -1.0135   -0.6714 C   0  0  0  0  0  0  0  0  0  0  0  0
    0.4748   -2.3687    0.0488 C   0  0  0  0  0  0  0  0  0  0  0  0
    0.1628   -2.2226    1.5649 C   0  0  0  0  0  0  0  0  0  0  0  0
   -1.2576   -2.3406    2.0063 N   0  0  0  0  0  0  0  0  0  0  0  0
   -1.6851   -3.7538    1.9913 C   0  0  0  0  0  0  0  0  0  0  0  0
   -1.3482   -1.8408    3.3926 C   0  0  0  0  0  0  0  0  0  0  0  0
   -2.1643   -1.5491    1.1564 C   0  0  0  0  0  0  0  0  0  0  0  0
   -0.4829   -3.2191   -0.5596 O   0  0  0  0  0  0  0  0  0  0  0  0
   -0.0211   -3.9364   -1.6893 C   0  0  0  0  0  0  0  0  0  0  0  0
    1.8357    0.0640    0.7606 H   0  0  0  0  0  0  0  0  0  0  0  0
    1.9233    0.6560   -0.8893 H   0  0  0  0  0  0  0  0  0  0  0  0
    2.7351   -0.8423   -0.4540 H   0  0  0  0  0  0  0  0  0  0  0  0
   -0.2952   -0.4030   -0.4936 H   0  0  0  0  0  0  0  0  0  0  0  0
    0.6291   -1.2153   -1.7426 H   0  0  0  0  0  0  0  0  0  0  0  0
    1.4632   -2.8515   -0.0118 H   0  0  0  0  0  0  0  0  0  0  0  0
    0.7225   -2.9813    2.1147 H   0  0  0  0  0  0  0  0  0  0  0  0
    0.5316   -1.2428    1.8721 H   0  0  0  0  0  0  0  0  0  0  0  0
   -1.0728   -4.3385    2.6751 H   0  0  0  0  0  0  0  0  0  0  0  0
   -2.7257   -3.8305    2.2998 H   0  0  0  0  0  0  0  0  0  0  0  0
   -1.5776   -4.1503    0.9843 H   0  0  0  0  0  0  0  0  0  0  0  0
   -1.1098   -0.7792    3.4333 H   0  0  0  0  0  0  0  0  0  0  0  0
   -2.3586   -1.9831    3.7724 H   0  0  0  0  0  0  0  0  0  0  0  0
   -0.6560   -2.3794    4.0376 H   0  0  0  0  0  0  0  0  0  0  0  0
   -1.8742   -0.5006    1.1751 H   0  0  0  0  0  0  0  0  0  0  0  0
   -2.1241   -1.9247    0.1361 H   0  0  0  0  0  0  0  0  0  0  0  0
   -3.1844   -1.6341    1.5269 H   0  0  0  0  0  0  0  0  0  0  0  0
   -0.8523   -4.5629   -2.0045 H   0  0  0  0  0  0  0  0  0  0  0  0
    0.2563   -3.2705   -2.5089 H   0  0  0  0  0  0  0  0  0  0  0  0
    0.8355   -4.5648   -1.4286 H   0  0  0  0  0  0  0  0  0  0  0  0
  1  2  1  0  0  0  0
  2  3  1  0  0  0  0
  3  4  1  0  0  0  0
  4  5  1  0  0  0  0
  5  6  1  0  0  0  0
  5  7  1  0  0  0  0
  5  8  1  0  0  0  0
  3  9  1  0  0  0  0
  9 10  1  0  0  0  0
  1 11  1  0  0  0  0
  1 12  1  0  0  0  0
  1 13  1  0  0  0  0
  2 14  1  0  0  0  0
  2 15  1  0  0  0  0
  3 16  1  0  0  0  0
  4 17  1  0  0  0  0
  4 18  1  0  0  0  0
  6 19  1  0  0  0  0
  6 20  1  0  0  0  0
  6 21  1  0  0  0  0
  7 22  1  0  0  0  0
  7 23  1  0  0  0  0
  7 24  1  0  0  0  0
  8 25  1  0  0  0  0
  8 26  1  0  0  0  0
  8 27  1  0  0  0  0
 10 28  1  0  0  0  0
 10 29  1  0  0  0  0
 10 30  1  0  0  0  0
M  CHG  1   1   1
M  END
