 xtb: 6.7.1 (edcfbbe)
          12202406573D

 60 61  0     0  0            999 V2000
   -0.6389   -0.1247   -0.6449 C   0  0  0  0  0  0  0  0  0  0  0  0
   -0.4893   -1.5547   -0.6895 N   0  0  0  0  0  0  0  0  0  0  0  0
   -1.3729   -2.4240   -1.2529 C   0  0  0  0  0  0  0  0  0  0  0  0
   -0.8692   -3.6732   -1.0731 C   0  0  0  0  0  0  0  0  0  0  0  0
    0.3138   -3.5560   -0.4010 N   0  0  0  0  0  0  0  0  0  0  0  0
    0.5199   -2.2618   -0.1828 C   0  0  0  0  0  0  0  0  0  0  0  0
    1.0858   -4.7788   -0.0857 C   0  0  0  0  0  0  0  0  0  0  0  0
    1.4066   -5.3911   -1.4239 C   0  0  0  0  0  0  0  0  0  0  0  0
    1.3272   -6.6994   -1.6626 C   0  0  0  0  0  0  0  0  0  0  0  0
    0.9450   -7.5959   -0.5307 C   0  0  0  0  0  0  0  0  0  0  0  0
    1.3582   -8.7264   -0.4228 O   0  0  0  0  0  0  0  0  0  0  0  0
    0.0274   -6.9713    0.4685 C   0  0  0  0  0  0  0  0  0  0  0  0
    0.1287   -5.6588    0.6740 C   0  0  0  0  0  0  0  0  0  0  0  0
   -0.9168   -7.8782    1.2324 C   0  0  0  0  0  0  0  0  0  0  0  0
   -0.0949   -8.6972    2.2379 C   0  0  0  0  0  0  0  0  0  0  0  0
   -1.9835   -7.0828    1.9906 C   0  0  0  0  0  0  0  0  0  0  0  0
   -1.6171   -8.8216    0.2453 C   0  0  0  0  0  0  0  0  0  0  0  0
    1.6633   -7.3391   -2.9951 C   0  0  0  0  0  0  0  0  0  0  0  0
    1.7485   -6.3033   -4.1199 C   0  0  0  0  0  0  0  0  0  0  0  0
    3.0190   -8.0479   -2.8642 C   0  0  0  0  0  0  0  0  0  0  0  0
    0.5758   -8.3616   -3.3507 C   0  0  0  0  0  0  0  0  0  0  0  0
    2.3931   -4.5217    0.7434 C   0  0  0  0  0  0  0  0  0  0  0  0
    3.3995   -3.6891   -0.0628 C   0  0  0  0  0  0  0  0  0  0  0  0
    2.0665   -3.8852    2.1008 C   0  0  0  0  0  0  0  0  0  0  0  0
    3.0708   -5.8666    1.0391 C   0  0  0  0  0  0  0  0  0  0  0  0
   -1.4882    0.1453   -0.0153 H   0  0  0  0  0  0  0  0  0  0  0  0
   -0.8157    0.2627   -1.6485 H   0  0  0  0  0  0  0  0  0  0  0  0
    0.2618    0.3313   -0.2400 H   0  0  0  0  0  0  0  0  0  0  0  0
   -2.2752   -2.1017   -1.7306 H   0  0  0  0  0  0  0  0  0  0  0  0
   -1.2575   -4.6255   -1.3704 H   0  0  0  0  0  0  0  0  0  0  0  0
    1.3567   -1.8197    0.3181 H   0  0  0  0  0  0  0  0  0  0  0  0
    1.7245   -4.6948   -2.1837 H   0  0  0  0  0  0  0  0  0  0  0  0
   -0.4687   -5.1542    1.4170 H   0  0  0  0  0  0  0  0  0  0  0  0
    0.4037   -8.0417    2.9496 H   0  0  0  0  0  0  0  0  0  0  0  0
   -0.7535   -9.3640    2.7878 H   0  0  0  0  0  0  0  0  0  0  0  0
    0.6537   -9.2947    1.7270 H   0  0  0  0  0  0  0  0  0  0  0  0
   -2.5400   -6.4307    1.3199 H   0  0  0  0  0  0  0  0  0  0  0  0
   -2.6861   -7.7749    2.4464 H   0  0  0  0  0  0  0  0  0  0  0  0
   -1.5460   -6.4875    2.7886 H   0  0  0  0  0  0  0  0  0  0  0  0
   -2.1509   -8.2557   -0.5167 H   0  0  0  0  0  0  0  0  0  0  0  0
   -0.9031   -9.4790   -0.2407 H   0  0  0  0  0  0  0  0  0  0  0  0
   -2.3349   -9.4400    0.7769 H   0  0  0  0  0  0  0  0  0  0  0  0
    2.5869   -5.6258   -3.9762 H   0  0  0  0  0  0  0  0  0  0  0  0
    1.9008   -6.8166   -5.0652 H   0  0  0  0  0  0  0  0  0  0  0  0
    0.8287   -5.7262   -4.1941 H   0  0  0  0  0  0  0  0  0  0  0  0
    2.9810   -8.8125   -2.0945 H   0  0  0  0  0  0  0  0  0  0  0  0
    3.2745   -8.5204   -3.8087 H   0  0  0  0  0  0  0  0  0  0  0  0
    3.8018   -7.3345   -2.6131 H   0  0  0  0  0  0  0  0  0  0  0  0
    0.5497   -9.1719   -2.6289 H   0  0  0  0  0  0  0  0  0  0  0  0
   -0.4036   -7.8868   -3.3839 H   0  0  0  0  0  0  0  0  0  0  0  0
    0.7815   -8.7892   -4.3281 H   0  0  0  0  0  0  0  0  0  0  0  0
    2.9805   -2.7922   -0.5083 H   0  0  0  0  0  0  0  0  0  0  0  0
    4.2194   -3.3909    0.5853 H   0  0  0  0  0  0  0  0  0  0  0  0
    3.8185   -4.2911   -0.8650 H   0  0  0  0  0  0  0  0  0  0  0  0
    1.5344   -4.5968    2.7268 H   0  0  0  0  0  0  0  0  0  0  0  0
    2.9939   -3.6335    2.6086 H   0  0  0  0  0  0  0  0  0  0  0  0
    1.4653   -2.9835    2.0376 H   0  0  0  0  0  0  0  0  0  0  0  0
    2.4398   -6.5109    1.6441 H   0  0  0  0  0  0  0  0  0  0  0  0
    3.3275   -6.3966    0.1265 H   0  0  0  0  0  0  0  0  0  0  0  0
    3.9897   -5.6840    1.5898 H   0  0  0  0  0  0  0  0  0  0  0  0
  1  2  1  0  0  0  0
  2  3  4  0  0  0  0
  3  4  2  0  0  0  0
  4  5  4  0  0  0  0
  2  6  4  0  0  0  0
  5  6  4  0  0  0  0
  5  7  1  0  0  0  0
  7  8  1  0  0  0  0
  8  9  2  0  0  0  0
  9 10  1  0  0  0  0
 10 11  2  0  0  0  0
 10 12  1  0  0  0  0
  7 13  1  0  0  0  0
 12 13  2  0  0  0  0
 12 14  1  0  0  0  0
 14 15  1  0  0  0  0
 14 16  1  0  0  0  0
 14 17  1  0  0  0  0
  9 18  1  0  0  0  0
 18 19  1  0  0  0  0
 18 20  1  0  0  0  0
 18 21  1  0  0  0  0
  7 22  1  0  0  0  0
 22 23  1  0  0  0  0
 22 24  1  0  0  0  0
 22 25  1  0  0  0  0
  1 26  1  0  0  0  0
  1 27  1  0  0  0  0
  1 28  1  0  0  0  0
  3 29  1  0  0  0  0
  4 30  1  0  0  0  0
  6 31  1  0  0  0  0
  8 32  1  0  0  0  0
 13 33  1  0  0  0  0
 15 34  1  0  0  0  0
 15 35  1  0  0  0  0
 15 36  1  0  0  0  0
 16 37  1  0  0  0  0
 16 38  1  0  0  0  0
 16 39  1  0  0  0  0
 17 40  1  0  0  0  0
 17 41  1  0  0  0  0
 17 42  1  0  0  0  0
 19 43  1  0  0  0  0
 19 44  1  0  0  0  0
 19 45  1  0  0  0  0
 20 46  1  0  0  0  0
 20 47  1  0  0  0  0
 20 48  1  0  0  0  0
 21 49  1  0  0  0  0
 21 50  1  0  0  0  0
 21 51  1  0  0  0  0
 23 52  1  0  0  0  0
 23 53  1  0  0  0  0
 23 54  1  0  0  0  0
 24 55  1  0  0  0  0
 24 56  1  0  0  0  0
 24 57  1  0  0  0  0
 25 58  1  0  0  0  0
 25 59  1  0  0  0  0
 25 60  1  0  0  0  0
M  CHG  1   1   1
M  END
