25

C          1.19192        0.16658       -0.10688
C          0.33336       -0.01072        1.14323
C          0.66415        0.96352        2.27854
C         -0.26112        2.17008        2.32303
N          0.82205        1.39483       -0.85407
C         -0.25140        1.37487       -1.68031
C         -0.59851        2.49917       -2.42086
C          0.17069        3.65406       -2.30904
C          1.27550        3.65643       -1.46196
C          1.58860        2.50617       -0.74604
C         -0.16850        4.82657       -3.06111
N         -0.44202        5.77361       -3.66922
H          1.04689       -0.67478       -0.79518
H          2.25991        0.21012        0.13286
H         -0.73332        0.03177        0.89490
H          0.52455       -1.02532        1.51562
H          0.55774        0.43268        3.23284
H          1.70774        1.29228        2.22124
H         -1.29750        1.85861        2.48907
H          0.02546        2.83151        3.14710
H         -0.22498        2.75034        1.39899
H         -0.82237        0.45175       -1.74240
H         -1.46384        2.46712       -3.08225
H          1.89507        4.54639       -1.35584
H          2.44330        2.46807       -0.07552
