35

C          0.72727        0.10832        0.01543
C          0.70517       -1.19600        0.76655
C          1.74665       -1.53690        1.64425
C          1.70740       -2.73747        2.35494
C          0.63281       -3.60882        2.19626
C         -0.40352       -3.28485        1.32461
C         -0.36974       -2.08577        0.61172
N          0.47830        1.24971        0.93233
C         -0.77797        1.46971        1.39340
C         -1.04357        2.53108        2.25608
C          0.00454        3.34098        2.68439
C          1.28551        3.10517        2.19522
C          1.50138        2.05096        1.31155
C         -2.41913        2.64565        2.77650
N         -2.99232        3.89073        2.99440
C         -4.25776        3.94100        3.71444
C         -2.59509        5.13053        2.33835
O         -2.98674        1.57912        3.00168
H         -0.04399        0.14975       -0.76313
H          1.69411        0.25239       -0.47991
H          2.60547       -0.88504        1.78723
H          2.51654       -3.00094        3.03365
H          0.60447       -4.54538        2.74994
H         -1.23833       -3.97257        1.20111
H         -1.19483       -1.86756       -0.06460
H         -1.55634        0.77969        1.07605
H         -0.16169        4.13255        3.41310
H          2.11741        3.72907        2.51747
H          2.49087        1.83118        0.91976
H         -4.26423        4.82021        4.36536
H         -5.07251        4.01233        2.98787
H         -4.40357        3.04750        4.32804
H         -2.24792        5.83315        3.10082
H         -1.81382        4.97191        1.59334
H         -3.46441        5.55340        1.82474
