30

C          1.32434       -0.06241       -0.22180
C          0.54825       -1.24198       -0.78683
C          0.61328       -2.51964        0.07085
C          0.26755       -2.35544        1.57961
N         -1.22589       -2.27151        1.99992
C         -1.94880       -3.59800        1.75337
C         -1.25615       -1.99556        3.50628
C         -1.98142       -1.16377        1.29553
O         -0.19307       -3.56652       -0.48225
C          0.31401       -4.12352       -1.69232
H          0.85670        0.33508        0.68281
H          1.35685        0.74962       -0.95565
H          2.35515       -0.34581        0.01277
H         -0.48461       -0.94928       -0.99092
H          0.96959       -1.46377       -1.77504
H          1.65894       -2.85872        0.05487
H          0.65652       -3.23364        2.11156
H          0.76842       -1.47855        2.00251
H         -1.31745       -4.41484        2.11358
H         -2.89260       -3.58027        2.30818
H         -2.17487       -3.70293        0.69119
H         -0.76021       -1.03806        3.69177
H         -2.29890       -1.95037        3.83508
H         -0.73084       -2.80824        4.01692
H         -1.41283       -0.23577        1.39373
H         -2.12360       -1.43875        0.24908
H         -2.96181       -1.05609        1.77076
H         -0.28370       -5.00703       -1.93298
H          0.21534       -3.41368       -2.51723
H          1.35683       -4.43190       -1.57358
