 xtb: 6.7.1 (edcfbbe)
          12202406573D

 20 19  0     0  0            999 V2000
    1.0515   -2.2214   -0.3078 N   0  0  0  0  0  0  0  0  0  0  0  0
    0.4062   -0.9376   -0.6948 C   0  0  0  0  0  0  0  0  0  0  0  0
    0.7975    0.0197    0.4496 C   0  0  0  0  0  0  0  0  0  0  0  0
    1.3027   -0.4525    1.4399 O   0  0  0  0  0  0  0  0  0  0  0  0
    0.5277    1.2719    0.2346 O   0  0  0  0  0  0  0  0  0  0  0  0
   -1.1360   -1.0711   -0.7898 C   0  0  0  0  0  0  0  0  0  0  0  0
   -1.6983    0.1311   -1.5445 C   0  0  0  0  0  0  0  0  0  0  0  0
   -1.5315   -2.3644   -1.5052 C   0  0  0  0  0  0  0  0  0  0  0  0
    1.8846   -2.4455   -0.8579 H   0  0  0  0  0  0  0  0  0  0  0  0
    0.3792   -2.9974   -0.3693 H   0  0  0  0  0  0  0  0  0  0  0  0
    1.3412   -2.0404    0.6993 H   0  0  0  0  0  0  0  0  0  0  0  0
    0.7943   -0.5688   -1.6467 H   0  0  0  0  0  0  0  0  0  0  0  0
    0.7635    1.8504    0.9829 H   0  0  0  0  0  0  0  0  0  0  0  0
   -1.5520   -1.0849    0.2227 H   0  0  0  0  0  0  0  0  0  0  0  0
   -1.3711    0.1161   -2.5808 H   0  0  0  0  0  0  0  0  0  0  0  0
   -2.7832    0.0979   -1.5309 H   0  0  0  0  0  0  0  0  0  0  0  0
   -1.3849    1.0675   -1.0951 H   0  0  0  0  0  0  0  0  0  0  0  0
   -1.3989   -3.2563   -0.8919 H   0  0  0  0  0  0  0  0  0  0  0  0
   -2.5909   -2.3189   -1.7422 H   0  0  0  0  0  0  0  0  0  0  0  0
   -0.9930   -2.4779   -2.4434 H   0  0  0  0  0  0  0  0  0  0  0  0
  1  2  1  0  0  0  0
  2  3  1  0  0  0  0
  3  4  2  0  0  0  0
  3  5  4  0  0  0  0
  2  6  1  0  0  0  0
  6  7  1  0  0  0  0
  6  8  1  0  0  0  0
  1  9  1  0  0  0  0
  1 10  1  0  0  0  0
  1 11  1  0  0  0  0
  2 12  1  0  0  0  0
  5 13  1  0  0  0  0
  6 14  1  0  0  0  0
  7 15  1  0  0  0  0
  7 16  1  0  0  0  0
  7 17  1  0  0  0  0
  8 18  1  0  0  0  0
  8 19  1  0  0  0  0
  8 20  1  0  0  0  0
M  CHG  1   1   1
M  END
