63

C          1.24681        0.10186       -0.64146
C          1.33174       -1.41335       -0.53608
C          1.65890       -1.91216        0.87445
C          0.65597       -1.51888        1.96465
C         -0.78593       -1.97712        1.72486
C         -0.98861       -3.49586        1.67181
C         -0.65048       -4.25473        2.96255
C         -1.37151       -3.77124        4.22818
C         -2.90127       -3.77091        4.14591
C         -3.54934       -5.15987        4.10863
C         -3.44438       -5.99970        5.39399
C         -3.88130       -5.34609        6.71402
N         -5.39095       -5.38228        7.03055
C         -5.94490       -6.84280        7.12302
C         -5.20193       -7.95875        7.82944
C         -5.37264       -9.26379        7.31958
C         -4.80445      -10.37671        7.94441
C         -4.05328      -10.21290        9.10111
C         -3.88078       -8.94043        9.63147
C         -4.45934       -7.82668        9.01022
C         -5.68470       -4.65769        8.37352
C         -5.41940       -3.15731        8.35126
C         -6.21045       -4.68037        5.93918
H          0.40321        0.49802       -0.06863
H          1.10530        0.39883       -1.68569
H          2.16511        0.57321       -0.27728
H          0.39615       -1.85810       -0.89197
H          2.11723       -1.76466       -1.21619
H          1.75879       -3.00343        0.84597
H          2.64562       -1.52742        1.16221
H          1.01167       -1.91309        2.92378
H          0.65840       -0.42808        2.07788
H         -1.42039       -1.55006        2.51007
H         -1.15604       -1.54338        0.78866
H         -2.03248       -3.69554        1.40188
H         -0.39327       -3.91697        0.85316
H         -0.86920       -5.31761        2.80534
H          0.43064       -4.19869        3.13822
H         -1.04565       -4.38485        5.07595
H         -1.03740       -2.75241        4.45794
H         -3.29835       -3.19416        4.98718
H         -3.22078       -3.21773        3.25572
H         -4.59862       -5.03439        3.83205
H         -3.11252       -5.74031        3.28691
H         -3.96670       -6.94851        5.23570
H         -2.38717       -6.27234        5.51052
H         -3.37738       -5.84540        7.54609
H         -3.56539       -4.30301        6.75015
H         -6.95184       -6.76614        7.55297
H         -6.07734       -7.15636        6.07983
H         -5.97304       -9.44106        6.42675
H         -4.95835      -11.37328        7.53606
H         -3.61408      -11.07683        9.59512
H         -3.30223       -8.81551       10.54573
H         -4.29927       -6.87659        9.49950
H         -6.73747       -4.84059        8.61752
H         -5.06431       -5.10761        9.14507
H         -6.04059       -2.63251        7.62098
H         -5.66138       -2.73623        9.33350
H         -4.37022       -2.92343        8.15541
H         -5.73062       -3.73106        5.68951
H         -6.26406       -5.32245        5.05782
H         -7.22422       -4.51721        6.31839
