 xtb: 6.7.1 (edcfbbe)
          12202406573D

 17 17  0     0  0            999 V2000
    1.3167   -0.2489    0.1108 C   0  0  0  0  0  0  0  0  0  0  0  0
    0.3154   -0.9060   -0.8363 C   0  0  0  0  0  0  0  0  0  0  0  0
    0.7276   -0.0876    1.4302 N   0  0  0  0  0  0  0  0  0  0  0  0
    0.7638   -1.0973    2.3207 C   0  0  0  0  0  0  0  0  0  0  0  0
    0.2151   -1.0414    3.4970 N   0  0  0  0  0  0  0  0  0  0  0  0
   -0.4219    0.0614    3.8613 C   0  0  0  0  0  0  0  0  0  0  0  0
   -0.5146    1.1557    3.0031 C   0  0  0  0  0  0  0  0  0  0  0  0
    0.0853    1.0393    1.7645 C   0  0  0  0  0  0  0  0  0  0  0  0
    1.6054    0.7328   -0.2690 H   0  0  0  0  0  0  0  0  0  0  0  0
    2.2100   -0.8699    0.2008 H   0  0  0  0  0  0  0  0  0  0  0  0
    0.0291   -1.8928   -0.4811 H   0  0  0  0  0  0  0  0  0  0  0  0
   -0.5793   -0.2975   -0.9441 H   0  0  0  0  0  0  0  0  0  0  0  0
    0.7729   -1.0155   -1.8151 H   0  0  0  0  0  0  0  0  0  0  0  0
    1.2826   -2.0061    2.0433 H   0  0  0  0  0  0  0  0  0  0  0  0
   -0.8576    0.0580    4.8511 H   0  0  0  0  0  0  0  0  0  0  0  0
   -1.0295    2.0600    3.2847 H   0  0  0  0  0  0  0  0  0  0  0  0
    0.0624    1.8391    1.0361 H   0  0  0  0  0  0  0  0  0  0  0  0
  1  2  1  0  0  0  0
  1  3  1  0  0  0  0
  3  4  4  0  0  0  0
  4  5  2  0  0  0  0
  5  6  4  0  0  0  0
  6  7  4  0  0  0  0
  3  8  4  0  0  0  0
  7  8  4  0  0  0  0
  1  9  1  0  0  0  0
  1 10  1  0  0  0  0
  2 11  1  0  0  0  0
  2 12  1  0  0  0  0
  2 13  1  0  0  0  0
  4 14  1  0  0  0  0
  6 15  1  0  0  0  0
  7 16  1  0  0  0  0
  8 17  1  0  0  0  0
M  CHG  1   1   1
M  END
