36

O          1.67224        0.92945       -0.36905
N          2.62603        0.32586        0.13870
O          3.13542        0.59123        1.23502
C          3.19663       -0.79683       -0.61873
C          4.16215       -1.61949       -0.02292
C          4.69601       -2.69359       -0.74272
C          4.26375       -2.94691       -2.05134
C          3.30304       -2.11949       -2.64547
C          2.76809       -1.04193       -1.93075
C          4.82938       -4.13258       -2.81101
N          4.13187       -5.02997       -3.55026
C          2.67504       -5.05352       -3.70006
C          4.98492       -6.01290       -4.04210
C          6.26253       -5.69121       -3.58018
N          6.13140       -4.50465       -2.86683
C          7.25876       -3.72224       -2.35234
C          7.38056       -6.47637       -3.85865
C          7.13999       -7.62357       -4.63691
C          5.84998       -7.95340       -5.11153
C          4.74090       -7.14438       -4.82170
N          8.27273       -8.50170       -4.96114
O          9.40633       -8.07135       -4.71480
O          8.01575       -9.60694       -5.45074
H          4.49416       -1.44366        1.00039
H          5.41199       -3.34598       -0.24761
H          2.98362       -2.26981       -3.67400
H          2.02711       -0.39950       -2.40680
H          2.39590       -4.41100       -4.53885
H          2.32481       -6.07024       -3.89461
H          2.19588       -4.71181       -2.77956
H          7.02466       -2.65543       -2.38165
H          7.47220       -4.03848       -1.32840
H          8.14350       -3.88240       -2.97460
H          8.36331       -6.21192       -3.48652
H          5.69587       -8.85015       -5.71564
H          3.75018       -7.39313       -5.18417
