20

N          1.00836       -2.28412       -0.20470
C          0.40218       -0.97143       -0.66568
C          0.82227        0.10885        0.33816
O          1.24686       -0.15037        1.45497
O          0.76190        1.36038       -0.13235
C         -1.13055       -1.12869       -0.76684
C         -1.79104        0.12966       -1.34490
C         -1.54352       -2.33012       -1.62805
H          2.01436       -2.15859       -0.02025
H          0.89859       -3.04981       -0.87813
H          0.60270       -2.56165        0.70116
H          0.86957       -0.76600       -1.63434
H          1.06552        1.96279        0.58555
H         -1.54176       -1.28048        0.24022
H         -1.35584        0.39638       -2.31392
H         -2.86635       -0.02374       -1.48870
H         -1.68325        0.98408       -0.67072
H         -1.25335       -3.27737       -1.16333
H         -2.63104       -2.36315       -1.75715
H         -1.08715       -2.27908       -2.62241
