40

O          1.39186        0.21841        0.62066
C          2.61825        0.12249        0.62841
C          3.40880        1.03070        1.49743
C          4.68082        1.48352        1.12815
C          5.40009        2.30731        1.99658
C          4.85242        2.68062        3.22403
C          3.57796        2.24557        3.58397
C          2.85167        1.42691        2.71959
C          3.37198       -0.91341       -0.19476
N          2.74029       -2.25500       -0.24816
C          1.57749       -2.69124        0.37526
C          1.40087       -3.99747        0.01719
N          2.45271       -4.32974       -0.81685
C          3.27078       -3.27193       -0.94898
C          2.67747       -5.64268       -1.44444
C          3.14523       -5.48849       -2.88048
O          4.25912       -5.03997       -3.14900
C          2.20286       -5.82789       -3.96878
C          2.69220       -6.49095       -5.09802
C          1.82265       -6.81288       -6.13988
C          0.47587       -6.45715       -6.06097
C         -0.00678       -5.77643       -4.94314
C          0.85475       -5.45903       -3.89277
H          5.12678        1.23540        0.16940
H          6.38747        2.67013        1.71690
H          5.41543        3.32386        3.89786
H          3.14918        2.54959        4.53674
H          1.85441        1.10009        3.00886
H          3.45375       -0.54157       -1.22192
H          4.37660       -1.07159        0.21056
H          1.00148       -2.03370        1.00424
H          0.65308       -4.73522        0.25401
H          4.19502       -3.23256       -1.51650
H          3.45607       -6.16469       -0.87751
H          1.76569       -6.24443       -1.38369
H          3.74399       -6.76024       -5.17527
H          2.19448       -7.33463       -7.01958
H         -0.19744       -6.70128       -6.88077
H         -1.05448       -5.48480       -4.90192
H          0.45985       -4.90061       -3.04924
