 xtb: 6.7.1 (edcfbbe)
          12202406573D

 61 62  0     0  0            999 V2000
    1.2152   -0.2874   -0.2837 C   0  0  0  0  0  0  0  0  0  0  0  0
    0.9316    0.0653    1.1712 C   0  0  0  0  0  0  0  0  0  0  0  0
    1.3188    1.5005    1.5313 C   0  0  0  0  0  0  0  0  0  0  0  0
    0.5582    2.5861    0.7665 C   0  0  0  0  0  0  0  0  0  0  0  0
   -0.9632    2.5419    0.9222 C   0  0  0  0  0  0  0  0  0  0  0  0
   -1.4666    2.6393    2.3633 C   0  0  0  0  0  0  0  0  0  0  0  0
   -1.0504    3.9074    3.1132 C   0  0  0  0  0  0  0  0  0  0  0  0
   -1.4645    5.2205    2.4426 C   0  0  0  0  0  0  0  0  0  0  0  0
   -2.9671    5.3758    2.2065 C   0  0  0  0  0  0  0  0  0  0  0  0
   -3.7897    5.5279    3.4910 C   0  0  0  0  0  0  0  0  0  0  0  0
   -3.6089    6.8323    4.0907 N   0  0  0  0  0  0  0  0  0  0  0  0
   -4.1465    7.9917    3.5711 C   0  0  0  0  0  0  0  0  0  0  0  0
   -4.9622    8.2234    2.4714 C   0  0  0  0  0  0  0  0  0  0  0  0
   -5.3405    9.5313    2.2254 C   0  0  0  0  0  0  0  0  0  0  0  0
   -6.3457    9.8751    0.8819 Cl  0  0  0  0  0  0  0  0  0  0  0  0
   -4.9140   10.5879    3.0632 C   0  0  0  0  0  0  0  0  0  0  0  0
   -4.1114   10.3545    4.1658 C   0  0  0  0  0  0  0  0  0  0  0  0
   -3.7319    9.0407    4.4085 C   0  0  0  0  0  0  0  0  0  0  0  0
   -2.9640    8.4705    5.4047 N   0  0  0  0  0  0  0  0  0  0  0  0
   -2.9063    7.1482    5.1857 C   0  0  0  0  0  0  0  0  0  0  0  0
   -2.2050    6.1671    6.0398 C   0  0  0  0  0  0  0  0  0  0  0  0
   -2.3464    9.1975    6.4935 C   0  0  0  0  0  0  0  0  0  0  0  0
   -0.8646    9.4943    6.2336 C   0  0  0  0  0  0  0  0  0  0  0  0
   -0.6400   10.5926    5.1865 C   0  0  0  0  0  0  0  0  0  0  0  0
   -1.1412   11.9345    5.6818 C   0  0  0  0  0  0  0  0  0  0  0  0
   -2.2888   12.1625    5.9747 O   0  0  0  0  0  0  0  0  0  0  0  0
   -0.1737   12.8288    5.7635 O   0  0  0  0  0  0  0  0  0  0  0  0
   -5.4044   12.1897    2.7096 Cl  0  0  0  0  0  0  0  0  0  0  0  0
    0.5896    0.2902   -0.9593 H   0  0  0  0  0  0  0  0  0  0  0  0
    1.0163   -1.3417   -0.4597 H   0  0  0  0  0  0  0  0  0  0  0  0
    2.2572   -0.0918   -0.5262 H   0  0  0  0  0  0  0  0  0  0  0  0
   -0.1251   -0.1026    1.3873 H   0  0  0  0  0  0  0  0  0  0  0  0
    1.5034   -0.6084    1.8137 H   0  0  0  0  0  0  0  0  0  0  0  0
    1.1764    1.6426    2.6052 H   0  0  0  0  0  0  0  0  0  0  0  0
    2.3843    1.6325    1.3285 H   0  0  0  0  0  0  0  0  0  0  0  0
    0.9311    3.5601    1.0929 H   0  0  0  0  0  0  0  0  0  0  0  0
    0.7899    2.4992   -0.2960 H   0  0  0  0  0  0  0  0  0  0  0  0
   -1.3943    3.3503    0.3267 H   0  0  0  0  0  0  0  0  0  0  0  0
   -1.3360    1.6073    0.5010 H   0  0  0  0  0  0  0  0  0  0  0  0
   -2.5564    2.5591    2.3562 H   0  0  0  0  0  0  0  0  0  0  0  0
   -1.0935    1.7833    2.9270 H   0  0  0  0  0  0  0  0  0  0  0  0
   -1.4674    3.8479    4.1227 H   0  0  0  0  0  0  0  0  0  0  0  0
    0.0355    3.9148    3.2183 H   0  0  0  0  0  0  0  0  0  0  0  0
   -1.1006    6.0623    3.0400 H   0  0  0  0  0  0  0  0  0  0  0  0
   -0.9673    5.2844    1.4750 H   0  0  0  0  0  0  0  0  0  0  0  0
   -3.1368    6.2483    1.5735 H   0  0  0  0  0  0  0  0  0  0  0  0
   -3.3389    4.5035    1.6714 H   0  0  0  0  0  0  0  0  0  0  0  0
   -4.8524    5.4202    3.2601 H   0  0  0  0  0  0  0  0  0  0  0  0
   -3.5123    4.7597    4.2114 H   0  0  0  0  0  0  0  0  0  0  0  0
   -5.3030    7.4317    1.8261 H   0  0  0  0  0  0  0  0  0  0  0  0
   -3.7978   11.1728    4.7956 H   0  0  0  0  0  0  0  0  0  0  0  0
   -1.4117    5.6684    5.4831 H   0  0  0  0  0  0  0  0  0  0  0  0
   -1.7631    6.6452    6.9077 H   0  0  0  0  0  0  0  0  0  0  0  0
   -2.9004    5.4015    6.3848 H   0  0  0  0  0  0  0  0  0  0  0  0
   -2.8867   10.1376    6.6154 H   0  0  0  0  0  0  0  0  0  0  0  0
   -2.4555    8.6181    7.4125 H   0  0  0  0  0  0  0  0  0  0  0  0
   -0.4131    9.8061    7.1763 H   0  0  0  0  0  0  0  0  0  0  0  0
   -0.3549    8.5871    5.9040 H   0  0  0  0  0  0  0  0  0  0  0  0
    0.4236   10.6857    4.9719 H   0  0  0  0  0  0  0  0  0  0  0  0
   -1.1688   10.3491    4.2626 H   0  0  0  0  0  0  0  0  0  0  0  0
   -0.4948   13.6908    6.0780 H   0  0  0  0  0  0  0  0  0  0  0  0
  1  2  1  0  0  0  0
  2  3  1  0  0  0  0
  3  4  1  0  0  0  0
  4  5  1  0  0  0  0
  5  6  1  0  0  0  0
  6  7  1  0  0  0  0
  7  8  1  0  0  0  0
  8  9  1  0  0  0  0
  9 10  1  0  0  0  0
 10 11  1  0  0  0  0
 11 12  1  0  0  0  0
 12 13  4  0  0  0  0
 13 14  4  0  0  0  0
 14 15  1  0  0  0  0
 14 16  4  0  0  0  0
 16 17  4  0  0  0  0
 12 18  4  0  0  0  0
 17 18  4  0  0  0  0
 18 19  1  0  0  0  0
 11 20  4  0  0  0  0
 19 20  4  0  0  0  0
 20 21  1  0  0  0  0
 19 22  1  0  0  0  0
 22 23  1  0  0  0  0
 23 24  1  0  0  0  0
 24 25  1  0  0  0  0
 25 26  2  0  0  0  0
 25 27  1  0  0  0  0
 16 28  1  0  0  0  0
  1 29  1  0  0  0  0
  1 30  1  0  0  0  0
  1 31  1  0  0  0  0
  2 32  1  0  0  0  0
  2 33  1  0  0  0  0
  3 34  1  0  0  0  0
  3 35  1  0  0  0  0
  4 36  1  0  0  0  0
  4 37  1  0  0  0  0
  5 38  1  0  0  0  0
  5 39  1  0  0  0  0
  6 40  1  0  0  0  0
  6 41  1  0  0  0  0
  7 42  1  0  0  0  0
  7 43  1  0  0  0  0
  8 44  1  0  0  0  0
  8 45  1  0  0  0  0
  9 46  1  0  0  0  0
  9 47  1  0  0  0  0
 10 48  1  0  0  0  0
 10 49  1  0  0  0  0
 13 50  1  0  0  0  0
 17 51  1  0  0  0  0
 21 52  1  0  0  0  0
 21 53  1  0  0  0  0
 21 54  1  0  0  0  0
 22 55  1  0  0  0  0
 22 56  1  0  0  0  0
 23 57  1  0  0  0  0
 23 58  1  0  0  0  0
 24 59  1  0  0  0  0
 24 60  1  0  0  0  0
 27 61  1  0  0  0  0
M  CHG  1   1   1
M  END
