14

C          1.04342        0.91377        2.37658
C          0.39592       -0.12980        1.48489
N          0.84053        0.12756        0.06571
C         -1.12807       -0.07852        1.61042
O         -1.78236       -0.26544        2.61754
O         -1.72309        0.22614        0.43246
H          2.13499        0.88273        2.29463
H          0.78029        0.74333        3.42613
H          0.70919        1.92445        2.11610
H          0.73738       -1.14131        1.72364
H          0.42750        1.00834       -0.27277
H          1.86026        0.16486       -0.04181
H          0.46481       -0.60264       -0.55421
H         -2.69044        0.24110        0.63998
