28

C          0.74030        0.22132       -0.04505
C          0.48155       -0.77467       -1.16686
N          0.99709       -2.19889       -0.86683
C          0.41706       -2.70995        0.49616
C         -1.10294       -2.70995        0.49616
C         -2.40679       -2.70995        0.49616
C          0.47290       -3.19041       -1.94819
C          1.04456       -2.99163       -3.33904
C          2.53641       -2.28612       -0.71826
C          3.34428       -1.40067       -1.65648
H          0.10915        0.02511        0.82643
H          0.49433        1.23098       -0.39125
H          1.78308        0.22962        0.28126
H         -0.59311       -0.84207       -1.36890
H          0.96310       -0.43557       -2.08807
H          0.79387       -3.72827        0.64694
H          0.80167       -2.07020        1.29639
H         -3.47460       -2.71406        0.51003
H          0.70043       -4.20347       -1.59677
H         -0.61493       -3.07458       -1.99717
H          2.08964       -3.30749       -3.39155
H          0.49638       -3.62305       -4.04744
H          0.95424       -1.96155       -3.69104
H          2.78039       -2.00176        0.31204
H          2.80903       -3.33992       -0.84544
H          3.21008       -0.33856       -1.43499
H          4.41034       -1.61492       -1.52133
H          3.11909       -1.55457       -2.71106
