43

C          1.17928       -0.22717       -0.05705
C          1.58102       -0.90983        1.23770
O          1.45903       -0.00225        2.34632
C          2.48642        0.87092        2.53592
O          3.49220        0.95977        1.84421
C          2.18210        1.79081        3.70773
N          2.07016        3.19899        3.27217
C          2.98744        4.16172        3.49933
C          4.28738        3.97773        4.21906
N          2.49220        5.31291        2.99315
C          1.28958        5.06715        2.33523
C          1.01580        3.71047        2.52133
C         -0.12969        3.10528        2.00797
C         -0.99291        3.93351        1.28058
C         -0.71885        5.30020        1.09205
C          0.43100        5.90197        1.62178
C          3.10247        6.65111        3.18214
C          3.00745        7.14103        4.62272
O          3.81067        7.91434        5.12578
O          1.91743        6.62045        5.25468
C          1.71299        7.03766        6.61572
C          2.48144        6.12774        7.55515
H          0.19614        0.24467        0.04116
H          1.14610       -0.94719       -0.87964
H          1.88771        0.56463       -0.31957
H          0.89723       -1.74150        1.43774
H          2.59345       -1.32438        1.18275
H          1.24218        1.50641        4.19299
H          2.97473        1.67667        4.45203
H          4.04656        3.73693        5.25544
H          4.81613        3.16055        3.72645
H          4.87107        4.89443        4.16080
H         -0.34702        2.05495        2.15647
H         -1.90132        3.51044        0.84978
H         -1.42204        5.90583        0.51867
H          0.63365        6.95508        1.47393
H          4.15460        6.58383        2.88962
H          2.61295        7.38548        2.53773
H          1.98880        8.08879        6.75622
H          0.63993        6.95443        6.81694
H          3.55852        6.19460        7.37210
H          2.28670        6.39277        8.59814
H          2.19642        5.08236        7.39657
