44

O          1.14381        0.53222        0.51975
C          2.31749        0.47754        0.15377
C          2.82964        1.46902       -0.83660
C          4.07032        1.32625       -1.47195
C          4.50190        2.29261       -2.38512
C          3.70166        3.39819       -2.66891
C          2.46453        3.54204       -2.04565
C          2.02764        2.58023       -1.13395
C          3.27101       -0.58198        0.68370
N          2.71547       -1.26645        1.87127
C          2.02576       -2.46753        1.82702
C          1.64838       -2.75134        3.10323
N          2.11432       -1.71723        3.89554
C          2.62620       -0.74054        3.11475
C          3.14073        0.61124        3.56686
C          4.46326        0.86185        3.47946
C          2.13093        1.65712        4.07964
C          0.65569        1.23590        3.90691
C          2.37278        1.94652        5.57472
C          2.30158        2.98062        3.29431
C          2.10773       -1.73279        5.35453
H          4.72349        0.47716       -1.29722
H          5.46315        2.18449       -2.88456
H          4.03973        4.14710       -3.38275
H          1.83786        4.40222       -2.27285
H          1.05561        2.70843       -0.65951
H          3.43529       -1.33146       -0.09829
H          4.23213       -0.14229        0.95627
H          1.90219       -2.97489        0.88570
H          1.13032       -3.57633        3.56133
H          4.89189        1.81161        3.78874
H          5.16880        0.10981        3.13718
H          0.39936        0.36191        4.50899
H         -0.02112        2.03931        4.22262
H          0.41691        1.00729        2.86516
H          3.38785        2.31548        5.76005
H          1.67866        2.71047        5.94458
H          2.22773        1.05150        6.18757
H          3.28572        3.43430        3.45418
H          2.17657        2.82207        2.21748
H          1.55779        3.72377        3.60585
H          2.96507       -1.17638        5.73972
H          1.17559       -1.30203        5.72370
H          2.18681       -2.76561        5.70749
