 xtb: 6.7.1 (edcfbbe)
          12202406583D

 80 79  0     0  0            999 V2000
    0.8068    0.9761   -1.4155 C   0  0  0  0  0  0  0  0  0  0  0  0
   -0.4230    1.1792   -2.2927 C   0  0  0  0  0  0  0  0  0  0  0  0
   -0.9379   -0.1164   -2.9217 C   0  0  0  0  0  0  0  0  0  0  0  0
   -1.4465   -1.1166   -1.8834 C   0  0  0  0  0  0  0  0  0  0  0  0
   -2.2877   -2.2433   -2.4865 C   0  0  0  0  0  0  0  0  0  0  0  0
   -1.5820   -3.1025   -3.5419 C   0  0  0  0  0  0  0  0  0  0  0  0
   -0.4198   -4.0262   -3.1491 C   0  0  0  0  0  0  0  0  0  0  0  0
   -0.7015   -5.2028   -2.2581 N   0  0  0  0  0  0  0  0  0  0  0  0
   -2.0692   -5.7712   -2.4946 C   0  0  0  0  0  0  0  0  0  0  0  0
   -2.3613   -6.3982   -3.8561 C   0  0  0  0  0  0  0  0  0  0  0  0
   -3.8602   -6.7117   -3.9766 C   0  0  0  0  0  0  0  0  0  0  0  0
   -4.7514   -5.4984   -4.2523 C   0  0  0  0  0  0  0  0  0  0  0  0
   -4.6141   -4.9175   -5.6625 C   0  0  0  0  0  0  0  0  0  0  0  0
   -5.1773   -5.8334   -6.7425 C   0  0  0  0  0  0  0  0  0  0  0  0
    0.3214   -6.2865   -2.4645 C   0  0  0  0  0  0  0  0  0  0  0  0
    0.8606   -6.5603   -3.8728 C   0  0  0  0  0  0  0  0  0  0  0  0
    1.5820   -7.9159   -3.8920 C   0  0  0  0  0  0  0  0  0  0  0  0
    0.6310   -9.1121   -3.9165 C   0  0  0  0  0  0  0  0  0  0  0  0
    1.3663  -10.4445   -4.0730 C   0  0  0  0  0  0  0  0  0  0  0  0
    2.2047  -10.8170   -2.8560 C   0  0  0  0  0  0  0  0  0  0  0  0
   -0.6892   -4.7280   -0.8122 C   0  0  0  0  0  0  0  0  0  0  0  0
    0.5252   -4.9988    0.0836 C   0  0  0  0  0  0  0  0  0  0  0  0
    1.8335   -4.2514   -0.2052 C   0  0  0  0  0  0  0  0  0  0  0  0
    1.7825   -2.7328   -0.0181 C   0  0  0  0  0  0  0  0  0  0  0  0
    1.3013   -2.2529    1.3521 C   0  0  0  0  0  0  0  0  0  0  0  0
    2.1691   -2.7493    2.5018 C   0  0  0  0  0  0  0  0  0  0  0  0
    0.5675    0.3872   -0.5334 H   0  0  0  0  0  0  0  0  0  0  0  0
    1.1892    1.9367   -1.0819 H   0  0  0  0  0  0  0  0  0  0  0  0
    1.5957    0.4715   -1.9701 H   0  0  0  0  0  0  0  0  0  0  0  0
   -1.2192    1.6348   -1.7010 H   0  0  0  0  0  0  0  0  0  0  0  0
   -0.1721    1.8735   -3.0966 H   0  0  0  0  0  0  0  0  0  0  0  0
   -1.7547    0.1302   -3.6035 H   0  0  0  0  0  0  0  0  0  0  0  0
   -0.1314   -0.5606   -3.5103 H   0  0  0  0  0  0  0  0  0  0  0  0
   -0.6010   -1.5229   -1.3277 H   0  0  0  0  0  0  0  0  0  0  0  0
   -2.0737   -0.5837   -1.1659 H   0  0  0  0  0  0  0  0  0  0  0  0
   -2.6989   -2.8576   -1.6814 H   0  0  0  0  0  0  0  0  0  0  0  0
   -3.1412   -1.7832   -2.9902 H   0  0  0  0  0  0  0  0  0  0  0  0
   -2.3419   -3.6766   -4.0694 H   0  0  0  0  0  0  0  0  0  0  0  0
   -1.1540   -2.4199   -4.2790 H   0  0  0  0  0  0  0  0  0  0  0  0
   -0.0325   -4.4161   -4.0883 H   0  0  0  0  0  0  0  0  0  0  0  0
    0.3765   -3.4507   -2.6762 H   0  0  0  0  0  0  0  0  0  0  0  0
   -2.2264   -6.5475   -1.7412 H   0  0  0  0  0  0  0  0  0  0  0  0
   -2.7883   -4.9750   -2.3054 H   0  0  0  0  0  0  0  0  0  0  0  0
   -2.0692   -5.7427   -4.6744 H   0  0  0  0  0  0  0  0  0  0  0  0
   -1.8175   -7.3370   -3.9541 H   0  0  0  0  0  0  0  0  0  0  0  0
   -3.9941   -7.4304   -4.7840 H   0  0  0  0  0  0  0  0  0  0  0  0
   -4.1935   -7.1970   -3.0568 H   0  0  0  0  0  0  0  0  0  0  0  0
   -5.7890   -5.8058   -4.1136 H   0  0  0  0  0  0  0  0  0  0  0  0
   -4.5546   -4.7121   -3.5189 H   0  0  0  0  0  0  0  0  0  0  0  0
   -5.1554   -3.9699   -5.6920 H   0  0  0  0  0  0  0  0  0  0  0  0
   -3.5676   -4.6989   -5.8896 H   0  0  0  0  0  0  0  0  0  0  0  0
   -6.2151   -6.0774   -6.5300 H   0  0  0  0  0  0  0  0  0  0  0  0
   -5.1347   -5.3399   -7.7099 H   0  0  0  0  0  0  0  0  0  0  0  0
   -4.6133   -6.7601   -6.8140 H   0  0  0  0  0  0  0  0  0  0  0  0
    1.1928   -6.0455   -1.8642 H   0  0  0  0  0  0  0  0  0  0  0  0
   -0.1174   -7.2021   -2.0669 H   0  0  0  0  0  0  0  0  0  0  0  0
    0.0826   -6.5788   -4.6324 H   0  0  0  0  0  0  0  0  0  0  0  0
    1.5869   -5.7917   -4.1443 H   0  0  0  0  0  0  0  0  0  0  0  0
    2.2014   -7.9557   -4.7889 H   0  0  0  0  0  0  0  0  0  0  0  0
    2.2470   -7.9833   -3.0305 H   0  0  0  0  0  0  0  0  0  0  0  0
    0.0372   -9.1529   -2.9998 H   0  0  0  0  0  0  0  0  0  0  0  0
   -0.0566   -8.9971   -4.7585 H   0  0  0  0  0  0  0  0  0  0  0  0
    0.6244  -11.2273   -4.2412 H   0  0  0  0  0  0  0  0  0  0  0  0
    2.0054  -10.4012   -4.9565 H   0  0  0  0  0  0  0  0  0  0  0  0
    1.5920  -10.8298   -1.9568 H   0  0  0  0  0  0  0  0  0  0  0  0
    2.6307  -11.8074   -2.9888 H   0  0  0  0  0  0  0  0  0  0  0  0
    3.0241  -10.1181   -2.7095 H   0  0  0  0  0  0  0  0  0  0  0  0
   -0.8676   -3.6558   -0.8288 H   0  0  0  0  0  0  0  0  0  0  0  0
   -1.5377   -5.1949   -0.3103 H   0  0  0  0  0  0  0  0  0  0  0  0
    0.1964   -4.7005    1.0812 H   0  0  0  0  0  0  0  0  0  0  0  0
    0.7235   -6.0699    0.1466 H   0  0  0  0  0  0  0  0  0  0  0  0
    2.5834   -4.6539    0.4770 H   0  0  0  0  0  0  0  0  0  0  0  0
    2.1947   -4.4484   -1.2178 H   0  0  0  0  0  0  0  0  0  0  0  0
    2.7926   -2.3511   -0.1795 H   0  0  0  0  0  0  0  0  0  0  0  0
    1.1527   -2.2836   -0.7890 H   0  0  0  0  0  0  0  0  0  0  0  0
    1.3240   -1.1612    1.3459 H   0  0  0  0  0  0  0  0  0  0  0  0
    0.2628   -2.5494    1.5189 H   0  0  0  0  0  0  0  0  0  0  0  0
    3.2103   -2.4868    2.3311 H   0  0  0  0  0  0  0  0  0  0  0  0
    1.8515   -2.2882    3.4332 H   0  0  0  0  0  0  0  0  0  0  0  0
    2.0994   -3.8278    2.6208 H   0  0  0  0  0  0  0  0  0  0  0  0
  1  2  1  0  0  0  0
  2  3  1  0  0  0  0
  3  4  1  0  0  0  0
  4  5  1  0  0  0  0
  5  6  1  0  0  0  0
  6  7  1  0  0  0  0
  7  8  1  0  0  0  0
  8  9  1  0  0  0  0
  9 10  1  0  0  0  0
 10 11  1  0  0  0  0
 11 12  1  0  0  0  0
 12 13  1  0  0  0  0
 13 14  1  0  0  0  0
  8 15  1  0  0  0  0
 15 16  1  0  0  0  0
 16 17  1  0  0  0  0
 17 18  1  0  0  0  0
 18 19  1  0  0  0  0
 19 20  1  0  0  0  0
  8 21  1  0  0  0  0
 21 22  1  0  0  0  0
 22 23  1  0  0  0  0
 23 24  1  0  0  0  0
 24 25  1  0  0  0  0
 25 26  1  0  0  0  0
  1 27  1  0  0  0  0
  1 28  1  0  0  0  0
  1 29  1  0  0  0  0
  2 30  1  0  0  0  0
  2 31  1  0  0  0  0
  3 32  1  0  0  0  0
  3 33  1  0  0  0  0
  4 34  1  0  0  0  0
  4 35  1  0  0  0  0
  5 36  1  0  0  0  0
  5 37  1  0  0  0  0
  6 38  1  0  0  0  0
  6 39  1  0  0  0  0
  7 40  1  0  0  0  0
  7 41  1  0  0  0  0
  9 42  1  0  0  0  0
  9 43  1  0  0  0  0
 10 44  1  0  0  0  0
 10 45  1  0  0  0  0
 11 46  1  0  0  0  0
 11 47  1  0  0  0  0
 12 48  1  0  0  0  0
 12 49  1  0  0  0  0
 13 50  1  0  0  0  0
 13 51  1  0  0  0  0
 14 52  1  0  0  0  0
 14 53  1  0  0  0  0
 14 54  1  0  0  0  0
 15 55  1  0  0  0  0
 15 56  1  0  0  0  0
 16 57  1  0  0  0  0
 16 58  1  0  0  0  0
 17 59  1  0  0  0  0
 17 60  1  0  0  0  0
 18 61  1  0  0  0  0
 18 62  1  0  0  0  0
 19 63  1  0  0  0  0
 19 64  1  0  0  0  0
 20 65  1  0  0  0  0
 20 66  1  0  0  0  0
 20 67  1  0  0  0  0
 21 68  1  0  0  0  0
 21 69  1  0  0  0  0
 22 70  1  0  0  0  0
 22 71  1  0  0  0  0
 23 72  1  0  0  0  0
 23 73  1  0  0  0  0
 24 74  1  0  0  0  0
 24 75  1  0  0  0  0
 25 76  1  0  0  0  0
 25 77  1  0  0  0  0
 26 78  1  0  0  0  0
 26 79  1  0  0  0  0
 26 80  1  0  0  0  0
M  CHG  1   1   1
M  END
