34

C          2.15380       -0.27920        0.65400
C          1.30477        0.30197        1.77630
C          1.22163        1.82794        1.74581
C          0.50190        2.46863        0.54899
N         -1.03639        2.61035        0.62910
C         -1.50374        3.10533        1.96222
C         -0.99708        4.49397        2.31630
C         -0.56247        5.68515        2.62002
C         -1.50374        3.69843       -0.36385
C         -0.99707        3.31075       -1.74349
C         -0.56245        2.97820       -2.92694
C         -1.80290        1.28106        0.41728
C         -1.56561        0.47577       -0.81809
C         -1.07053       -0.76900       -0.85880
H          1.73852       -0.05898       -0.33233
H          2.21451       -1.36772        0.75410
H          3.17308        0.11863        0.68943
H          0.31153       -0.14804        1.77199
H          1.76378        0.00580        2.72793
H          0.82566        2.18373        2.69995
H          2.25618        2.19892        1.72539
H          0.88852        3.49125        0.45091
H          0.74360        1.94385       -0.37875
H         -2.60158        3.15241        1.94664
H         -1.23070        2.38615        2.74113
H         -0.21006        6.65867        2.88265
H         -2.59767        3.74739       -0.34549
H         -1.06401        4.66518       -0.10443
H         -0.20908        2.71596       -3.89984
H         -1.61480        0.66948        1.30639
H         -2.87152        1.53432        0.44152
H         -1.92833        0.88259       -1.75862
H         -0.98976       -1.29986       -1.80581
H         -0.75201       -1.31047        0.02624
