26

O          1.42782       -0.86918        0.06955
C          2.36778       -0.08722        0.11801
C          3.14436        0.09543        1.36088
C          4.20069        1.00251        1.39685
C          4.92962        1.17254        2.58276
C          4.62437        0.43314        3.74211
C          3.55020       -0.46594        3.68664
C          2.81712       -0.63506        2.50419
N          5.42949        0.65850        5.01026
C          5.11544        2.05411        5.53694
C          6.91918        0.51275        4.70369
C          5.09134       -0.35646        6.10159
H          2.67270        0.51043       -0.75743
H          4.46353        1.58524        0.51550
H          5.73253        1.90482        2.56829
H          3.23181       -1.06220        4.53529
H          1.98471       -1.33963        2.47906
H          5.66981        2.19924        6.46951
H          5.43320        2.80010        4.80258
H          4.03878        2.12520        5.72243
H          7.47126        0.58373        5.64656
H          7.08826       -0.46410        4.23962
H          7.24255        1.32390        4.04598
H          4.04959       -0.22262        6.40920
H          5.27903       -1.36561        5.72092
H          5.74134       -0.16335        6.96181
