80

C          0.84925        0.88178       -0.46705
C         -0.09635        1.36725       -1.55437
C         -0.63554        0.24783       -2.45174
C         -1.46141       -0.78357       -1.68475
C         -2.33128       -1.68685       -2.55870
C         -1.68788       -2.41361       -3.74632
C         -0.76373       -3.64945       -3.60178
N         -1.25492       -4.88264       -2.79552
C         -2.81180       -5.11180       -2.95884
C         -3.34459       -5.19336       -4.40743
C         -3.45080       -6.55338       -5.11383
C         -4.09213       -7.69423       -4.32293
C         -5.53837       -7.45317       -3.88794
C         -6.50481       -7.32924       -5.05652
C         -0.60793       -6.24962       -3.18453
C          0.69753       -6.22285       -3.97300
C          1.67551       -7.33475       -3.55722
C          1.06430       -8.74025       -3.52666
C          2.09825       -9.85112       -3.31793
C          2.89678       -9.71425       -2.02980
C         -0.97736       -4.61915       -1.26095
C          0.39341       -5.03271       -0.67059
C          1.68569       -4.34961       -1.13218
C          1.86714       -2.89675       -0.70014
C          2.20217       -2.69655        0.77832
C          3.62381       -3.11703        1.12367
H          0.33772        0.23064        0.24807
H          1.24900        1.73437        0.09156
H          1.69274        0.33307       -0.89669
H         -0.93308        1.90298       -1.09016
H          0.43321        2.09379       -2.18177
H         -1.25658        0.70753       -3.23003
H          0.20136       -0.24782       -2.95729
H         -0.81320       -1.39206       -1.05698
H         -2.13230       -0.25796       -0.99227
H         -2.86488       -2.38037       -1.90654
H         -3.11708       -1.04334       -2.98013
H         -2.51281       -2.66994       -4.41641
H         -1.11854       -1.67469       -4.32559
H         -0.56176       -4.01527       -4.61506
H          0.18518       -3.33181       -3.16921
H         -3.05846       -6.00944       -2.38095
H         -3.29515       -4.27834       -2.44931
H         -4.35954       -4.77341       -4.38539
H         -2.77939       -4.54913       -5.08325
H         -4.01555       -6.40268       -6.04289
H         -2.45965       -6.87101       -5.45512
H         -4.05754       -8.59992       -4.94215
H         -3.48683       -7.91797       -3.43796
H         -5.85500       -8.30068       -3.26798
H         -5.60747       -6.56107       -3.25655
H         -6.43121       -8.19606       -5.72136
H         -7.53433       -7.27305       -4.68881
H         -6.31201       -6.42627       -5.64301
H         -0.55732       -6.84388       -2.26944
H         -1.32386       -6.79258       -3.79309
H          0.45944       -6.35494       -5.03698
H          1.22562       -5.27229       -3.91338
H          2.52463       -7.32225       -4.25091
H          2.07463       -7.09074       -2.56606
H          0.32012       -8.81130       -2.72538
H          0.53480       -8.92951       -4.46798
H          1.57217      -10.81346       -3.30182
H          2.78698       -9.88107       -4.16963
H          2.23658       -9.61473       -1.16251
H          3.52309      -10.59968       -1.87987
H          3.56009       -8.84456       -2.06258
H         -1.17615       -3.56934       -1.06619
H         -1.74142       -5.19741       -0.72480
H          0.31310       -4.88925        0.41481
H          0.53621       -6.11203       -0.77393
H          2.53199       -4.94116       -0.76231
H          1.77290       -4.38834       -2.21419
H          2.66523       -2.44814       -1.30528
H          0.96327       -2.34009       -0.93938
H          2.09730       -1.63149        1.01556
H          1.49203       -3.23098        1.41696
H          4.35101       -2.58076        0.50487
H          3.84029       -2.88621        2.17152
H          3.77506       -4.19029        0.97999
