 xtb: 6.7.1 (edcfbbe)
          12202406583D

 26 26  0     0  0            999 V2000
    1.4910   -0.8925    0.0473 O   0  0  0  0  0  0  0  0  0  0  0  0
    2.3762   -0.0931    0.1504 C   0  0  0  0  0  0  0  0  0  0  0  0
    3.1652    0.1054    1.3938 C   0  0  0  0  0  0  0  0  0  0  0  0
    4.1724    1.0614    1.4708 C   0  0  0  0  0  0  0  0  0  0  0  0
    4.8886    1.2262    2.6415 C   0  0  0  0  0  0  0  0  0  0  0  0
    4.6137    0.4334    3.7526 C   0  0  0  0  0  0  0  0  0  0  0  0
    3.6086   -0.5213    3.6830 C   0  0  0  0  0  0  0  0  0  0  0  0
    2.8918   -0.6787    2.5093 C   0  0  0  0  0  0  0  0  0  0  0  0
    5.4089    0.6492    4.9918 N   0  0  0  0  0  0  0  0  0  0  0  0
    5.1592    2.0216    5.4830 C   0  0  0  0  0  0  0  0  0  0  0  0
    6.8452    0.4689    4.6881 C   0  0  0  0  0  0  0  0  0  0  0  0
    5.0575   -0.2926    6.0728 C   0  0  0  0  0  0  0  0  0  0  0  0
    2.6776    0.5667   -0.6822 H   0  0  0  0  0  0  0  0  0  0  0  0
    4.3984    1.6803    0.6162 H   0  0  0  0  0  0  0  0  0  0  0  0
    5.6581    1.9814    2.6636 H   0  0  0  0  0  0  0  0  0  0  0  0
    3.3558   -1.1556    4.5146 H   0  0  0  0  0  0  0  0  0  0  0  0
    2.1063   -1.4164    2.4432 H   0  0  0  0  0  0  0  0  0  0  0  0
    5.7134    2.1940    6.4041 H   0  0  0  0  0  0  0  0  0  0  0  0
    5.4684    2.7598    4.7473 H   0  0  0  0  0  0  0  0  0  0  0  0
    4.0958    2.1528    5.6784 H   0  0  0  0  0  0  0  0  0  0  0  0
    7.4339    0.5877    5.5962 H   0  0  0  0  0  0  0  0  0  0  0  0
    7.0120   -0.5287    4.2845 H   0  0  0  0  0  0  0  0  0  0  0  0
    7.1865    1.1988    3.9589 H   0  0  0  0  0  0  0  0  0  0  0  0
    4.0179   -0.1670    6.3687 H   0  0  0  0  0  0  0  0  0  0  0  0
    5.2291   -1.3192    5.7548 H   0  0  0  0  0  0  0  0  0  0  0  0
    5.6851   -0.0925    6.9400 H   0  0  0  0  0  0  0  0  0  0  0  0
  1  2  2  0  0  0  0
  2  3  1  0  0  0  0
  3  4  4  0  0  0  0
  4  5  4  0  0  0  0
  5  6  4  0  0  0  0
  6  7  4  0  0  0  0
  3  8  4  0  0  0  0
  7  8  4  0  0  0  0
  6  9  1  0  0  0  0
  9 10  1  0  0  0  0
  9 11  1  0  0  0  0
  9 12  1  0  0  0  0
  2 13  1  0  0  0  0
  4 14  1  0  0  0  0
  5 15  1  0  0  0  0
  7 16  1  0  0  0  0
  8 17  1  0  0  0  0
 10 18  1  0  0  0  0
 10 19  1  0  0  0  0
 10 20  1  0  0  0  0
 11 21  1  0  0  0  0
 11 22  1  0  0  0  0
 11 23  1  0  0  0  0
 12 24  1  0  0  0  0
 12 25  1  0  0  0  0
 12 26  1  0  0  0  0
M  CHG  1   1   1
M  END
