38

C          1.15788       -0.02848        0.15642
O          0.33191       -0.56296       -0.87266
C          0.85094       -0.62744       -2.13818
C          2.15345       -0.23317       -2.50285
C          2.60988       -0.32158       -3.82758
C          1.70518       -0.82499       -4.75720
C          0.41290       -1.22860       -4.39653
C         -0.04845       -1.13738       -3.08770
N         -0.18891       -1.68688       -5.57029
C         -1.55379       -2.21583       -5.71204
C         -1.83254       -3.42892       -4.84261
O         -2.45124       -3.34769       -3.78451
C         -1.39302       -4.75690       -5.32708
C         -0.09198       -4.97209       -5.79219
C          0.27848       -6.23828       -6.24833
C         -0.64490       -7.28374       -6.23562
C         -1.93647       -7.07286       -5.75341
C         -2.31114       -5.81153       -5.29070
C          0.64696       -1.49761       -6.60058
N          1.81161       -1.03389       -6.12901
C          2.96800       -0.74602       -6.96776
H          0.58087       -0.03554        1.08603
H          1.43219        1.00940       -0.05900
H          2.04646       -0.64960        0.30891
H          2.84720        0.15630       -1.76029
H          3.60932       -0.01216       -4.10641
H         -1.05001       -1.44049       -2.80472
H         -2.25792       -1.41879       -5.44746
H         -1.73926       -2.47200       -6.76110
H          0.66002       -4.19230       -5.76495
H          1.29266       -6.42350       -6.59614
H         -0.35258       -8.27293       -6.58355
H         -2.64755       -7.89636       -5.72751
H         -3.31634       -5.66093       -4.90033
H          0.42876       -1.70879       -7.64136
H          3.02695       -1.49204       -7.76544
H          2.84722        0.24901       -7.40370
H          3.88842       -0.78674       -6.38086
