22

C          0.85374        0.08674       -0.11529
N          0.44719       -0.34089       -1.44863
N         -0.00576        0.56959       -2.29638
N         -0.25078       -0.16074       -3.36935
C         -0.83010        0.47163       -4.55689
C         -0.71143       -0.44409       -5.77585
C         -1.09547       -1.88476       -5.42101
C         -0.16638       -2.47107       -4.35382
C          0.02887       -1.52416       -3.24050
C          0.49821       -1.63197       -1.95927
H          0.57881       -0.68223        0.61206
H          0.35478        1.02305        0.15082
H          1.93741        0.23153       -0.10736
H         -0.32252        1.42387       -4.74423
H         -1.88444        0.67585       -4.33706
H          0.32135       -0.42852       -6.14525
H         -1.35003       -0.06876       -6.58280
H         -2.13120       -1.90126       -5.05816
H         -1.06062       -2.51230       -6.31869
H         -0.57790       -3.41069       -3.97105
H          0.81514       -2.68587       -4.79140
H          0.86365       -2.43237       -1.34368
