 xtb: 6.7.1 (edcfbbe)
          12202406583D

 67 68  0     0  0            999 V2000
    1.7531   -0.3978   -0.4237 C   0  0  0  0  0  0  0  0  0  0  0  0
    1.0894   -1.7496   -0.6581 C   0  0  0  0  0  0  0  0  0  0  0  0
    1.3574   -2.7575    0.4607 C   0  0  0  0  0  0  0  0  0  0  0  0
    0.8494   -2.3397    1.8424 C   0  0  0  0  0  0  0  0  0  0  0  0
   -0.6503   -2.0478    1.9173 C   0  0  0  0  0  0  0  0  0  0  0  0
   -1.5567   -3.2189    1.5339 C   0  0  0  0  0  0  0  0  0  0  0  0
   -1.4113   -4.4654    2.4095 C   0  0  0  0  0  0  0  0  0  0  0  0
   -1.6585   -4.2372    3.9027 C   0  0  0  0  0  0  0  0  0  0  0  0
   -3.0079   -3.6011    4.2416 C   0  0  0  0  0  0  0  0  0  0  0  0
   -4.2298   -4.3885    3.7668 C   0  0  0  0  0  0  0  0  0  0  0  0
   -4.3488   -5.7852    4.3942 C   0  0  0  0  0  0  0  0  0  0  0  0
   -4.2510   -5.7543    5.8864 C   0  0  0  0  0  0  0  0  0  0  0  0
   -5.0585   -4.9150    6.6450 C   0  0  0  0  0  0  0  0  0  0  0  0
   -4.9273   -4.8271    8.0194 C   0  0  0  0  0  0  0  0  0  0  0  0
   -3.9848   -5.6025    8.6774 C   0  0  0  0  0  0  0  0  0  0  0  0
   -3.1979   -6.4777    7.9374 C   0  0  0  0  0  0  0  0  0  0  0  0
   -3.3303   -6.5458    6.5637 C   0  0  0  0  0  0  0  0  0  0  0  0
   -3.7613   -5.5039   10.1409 N   0  0  0  0  0  0  0  0  0  0  0  0
   -2.3678   -4.9846   10.3854 C   0  0  0  0  0  0  0  0  0  0  0  0
   -2.1222   -3.6472    9.7362 C   0  0  0  0  0  0  0  0  0  0  0  0
   -1.6875   -3.5698    8.4172 C   0  0  0  0  0  0  0  0  0  0  0  0
   -1.4680   -2.3392    7.8245 C   0  0  0  0  0  0  0  0  0  0  0  0
   -1.6718   -1.1735    8.5436 C   0  0  0  0  0  0  0  0  0  0  0  0
   -2.0837   -1.2419    9.8637 C   0  0  0  0  0  0  0  0  0  0  0  0
   -2.3076   -2.4717   10.4576 C   0  0  0  0  0  0  0  0  0  0  0  0
   -4.7232   -4.6053   10.8035 C   0  0  0  0  0  0  0  0  0  0  0  0
   -3.9101   -6.8407   10.7525 C   0  0  0  0  0  0  0  0  0  0  0  0
    1.3227    0.1085    0.4367 H   0  0  0  0  0  0  0  0  0  0  0  0
    1.6189    0.2422   -1.2926 H   0  0  0  0  0  0  0  0  0  0  0  0
    2.8202   -0.5222   -0.2527 H   0  0  0  0  0  0  0  0  0  0  0  0
    0.0143   -1.6101   -0.7843 H   0  0  0  0  0  0  0  0  0  0  0  0
    1.4717   -2.1719   -1.5904 H   0  0  0  0  0  0  0  0  0  0  0  0
    0.9092   -3.7141    0.1836 H   0  0  0  0  0  0  0  0  0  0  0  0
    2.4363   -2.9164    0.5337 H   0  0  0  0  0  0  0  0  0  0  0  0
    1.1013   -3.1312    2.5524 H   0  0  0  0  0  0  0  0  0  0  0  0
    1.3857   -1.4440    2.1618 H   0  0  0  0  0  0  0  0  0  0  0  0
   -0.8861   -1.7230    2.9338 H   0  0  0  0  0  0  0  0  0  0  0  0
   -0.8830   -1.2106    1.2571 H   0  0  0  0  0  0  0  0  0  0  0  0
   -2.5927   -2.8741    1.5643 H   0  0  0  0  0  0  0  0  0  0  0  0
   -1.3496   -3.5062    0.5019 H   0  0  0  0  0  0  0  0  0  0  0  0
   -2.1029   -5.2254    2.0389 H   0  0  0  0  0  0  0  0  0  0  0  0
   -0.4043   -4.8699    2.2923 H   0  0  0  0  0  0  0  0  0  0  0  0
   -1.5688   -5.1960    4.4197 H   0  0  0  0  0  0  0  0  0  0  0  0
   -0.8713   -3.5908    4.2962 H   0  0  0  0  0  0  0  0  0  0  0  0
   -3.0679   -3.4724    5.3272 H   0  0  0  0  0  0  0  0  0  0  0  0
   -3.0532   -2.6062    3.7972 H   0  0  0  0  0  0  0  0  0  0  0  0
   -5.1233   -3.8070    4.0015 H   0  0  0  0  0  0  0  0  0  0  0  0
   -4.1963   -4.5031    2.6839 H   0  0  0  0  0  0  0  0  0  0  0  0
   -5.3157   -6.2086    4.1091 H   0  0  0  0  0  0  0  0  0  0  0  0
   -3.5729   -6.4370    3.9924 H   0  0  0  0  0  0  0  0  0  0  0  0
   -5.8008   -4.3032    6.1580 H   0  0  0  0  0  0  0  0  0  0  0  0
   -5.5710   -4.1400    8.5401 H   0  0  0  0  0  0  0  0  0  0  0  0
   -2.4573   -7.1062    8.4073 H   0  0  0  0  0  0  0  0  0  0  0  0
   -2.6975   -7.2242    6.0120 H   0  0  0  0  0  0  0  0  0  0  0  0
   -2.2300   -4.9112   11.4663 H   0  0  0  0  0  0  0  0  0  0  0  0
   -1.6622   -5.7177    9.9930 H   0  0  0  0  0  0  0  0  0  0  0  0
   -1.5063   -4.4707    7.8508 H   0  0  0  0  0  0  0  0  0  0  0  0
   -1.1276   -2.2933    6.8021 H   0  0  0  0  0  0  0  0  0  0  0  0
   -1.4959   -0.2151    8.0814 H   0  0  0  0  0  0  0  0  0  0  0  0
   -2.2252   -0.3384   10.4357 H   0  0  0  0  0  0  0  0  0  0  0  0
   -2.6065   -2.5134   11.4954 H   0  0  0  0  0  0  0  0  0  0  0  0
   -5.7400   -4.9570   10.6398 H   0  0  0  0  0  0  0  0  0  0  0  0
   -4.5270   -4.5978   11.8746 H   0  0  0  0  0  0  0  0  0  0  0  0
   -4.6148   -3.5912   10.4242 H   0  0  0  0  0  0  0  0  0  0  0  0
   -4.9033   -7.2304   10.5333 H   0  0  0  0  0  0  0  0  0  0  0  0
   -3.1721   -7.5359   10.3618 H   0  0  0  0  0  0  0  0  0  0  0  0
   -3.7840   -6.7731   11.8319 H   0  0  0  0  0  0  0  0  0  0  0  0
  1  2  1  0  0  0  0
  2  3  1  0  0  0  0
  3  4  1  0  0  0  0
  4  5  1  0  0  0  0
  5  6  1  0  0  0  0
  6  7  1  0  0  0  0
  7  8  1  0  0  0  0
  8  9  1  0  0  0  0
  9 10  1  0  0  0  0
 10 11  1  0  0  0  0
 11 12  1  0  0  0  0
 12 13  4  0  0  0  0
 13 14  4  0  0  0  0
 14 15  4  0  0  0  0
 15 16  4  0  0  0  0
 12 17  4  0  0  0  0
 16 17  4  0  0  0  0
 15 18  1  0  0  0  0
 18 19  1  0  0  0  0
 19 20  1  0  0  0  0
 20 21  4  0  0  0  0
 21 22  4  0  0  0  0
 22 23  4  0  0  0  0
 23 24  4  0  0  0  0
 20 25  4  0  0  0  0
 24 25  4  0  0  0  0
 18 26  1  0  0  0  0
 18 27  1  0  0  0  0
  1 28  1  0  0  0  0
  1 29  1  0  0  0  0
  1 30  1  0  0  0  0
  2 31  1  0  0  0  0
  2 32  1  0  0  0  0
  3 33  1  0  0  0  0
  3 34  1  0  0  0  0
  4 35  1  0  0  0  0
  4 36  1  0  0  0  0
  5 37  1  0  0  0  0
  5 38  1  0  0  0  0
  6 39  1  0  0  0  0
  6 40  1  0  0  0  0
  7 41  1  0  0  0  0
  7 42  1  0  0  0  0
  8 43  1  0  0  0  0
  8 44  1  0  0  0  0
  9 45  1  0  0  0  0
  9 46  1  0  0  0  0
 10 47  1  0  0  0  0
 10 48  1  0  0  0  0
 11 49  1  0  0  0  0
 11 50  1  0  0  0  0
 13 51  1  0  0  0  0
 14 52  1  0  0  0  0
 16 53  1  0  0  0  0
 17 54  1  0  0  0  0
 19 55  1  0  0  0  0
 19 56  1  0  0  0  0
 21 57  1  0  0  0  0
 22 58  1  0  0  0  0
 23 59  1  0  0  0  0
 24 60  1  0  0  0  0
 25 61  1  0  0  0  0
 26 62  1  0  0  0  0
 26 63  1  0  0  0  0
 26 64  1  0  0  0  0
 27 65  1  0  0  0  0
 27 66  1  0  0  0  0
 27 67  1  0  0  0  0
M  CHG  1   1   1
M  END
