50

C          1.54291        0.35587        0.25283
N          1.09463       -0.54520        1.39874
C          1.40214        0.14970        2.76261
C          0.79534        1.51144        2.99774
C          1.44348        2.67318        2.54488
C          0.88167        3.93248        2.75915
C         -0.32524        4.04943        3.44230
C         -0.96945        2.90927        3.91651
C         -0.41384        1.64695        3.69764
C         -0.41928       -0.84845        1.31791
C         -0.89745       -1.51586        0.01800
C         -0.80847       -3.04707       -0.02573
C         -1.92096       -3.77522        0.74139
C         -3.26573       -3.81290        0.00654
O         -3.15653       -4.67223       -1.13049
C         -3.18993       -4.07389       -2.35763
C         -4.06911       -3.05390       -2.71593
C         -4.01427       -2.50779       -4.00095
C         -3.09724       -2.99561       -4.93240
C         -2.24723       -4.04414       -4.58790
C         -2.30318       -4.58945       -3.30553
C          1.93231       -1.81861        1.36944
H          0.84846        1.19512        0.16581
H          1.54926       -0.22218       -0.67489
H          2.55999        0.70075        0.46109
H          1.08214       -0.54945        3.54626
H          2.49459        0.23036        2.83845
H          2.40147        2.62009        2.03152
H          1.39011        4.82735        2.40507
H         -0.75713        5.03266        3.61858
H         -1.90240        3.00966        4.46798
H         -0.93328        0.77784        4.09664
H         -0.67738       -1.44764        2.19791
H         -0.92542        0.11900        1.39998
H         -1.94661       -1.23026       -0.12927
H         -0.37093       -1.10509       -0.84771
H         -0.81568       -3.35989       -1.07441
H          0.14722       -3.39203        0.36942
H         -1.58869       -4.80980        0.89626
H         -2.05267       -3.32534        1.73072
H         -4.01403       -4.26307        0.66848
H         -3.60790       -2.79947       -0.22070
H         -4.82476       -2.69185       -2.02615
H         -4.70171       -1.71456       -4.28433
H         -3.06337       -2.57569       -5.93489
H         -1.55117       -4.44587       -5.31999
H         -1.64998       -5.41710       -3.04155
H          1.90397       -2.23920        0.36200
H          2.96813       -1.56338        1.61424
H          1.52958       -2.51662        2.10904
