31

C          1.51254        0.05975        0.43248
C          0.85161        1.34950        0.82588
C         -0.03272        1.40939        1.90109
C         -0.63742        2.61747        2.23137
N         -0.38244        3.73631        1.51254
C          0.47662        3.70137        0.46787
C          1.10400        2.51526        0.10448
C         -1.04734        5.01513        1.87597
C         -2.30122        5.23199        1.02798
C         -3.39554        4.24691        1.35340
C         -3.60939        3.12417        0.54084
C         -4.59170        2.19054        0.87256
C         -5.37258        2.37297        2.01158
C         -5.17666        3.49144        2.81848
C         -4.19270        4.42547        2.49307
H          1.17801       -0.24456       -0.56444
H          1.26823       -0.74579        1.13266
H          2.60077        0.17917        0.42697
H         -0.26084        0.51914        2.48469
H         -1.33928        2.69437        3.05759
H          0.65015        4.62629       -0.07461
H          1.78784        2.50299       -0.74275
H         -1.26475        4.99281        2.94994
H         -0.31915        5.81603        1.70315
H         -2.68169        6.24691        1.19811
H         -2.05582        5.17580       -0.03959
H         -3.02465        2.96471       -0.36295
H         -4.76218        1.32533        0.23504
H         -6.14881        1.65221        2.26070
H         -5.80450        3.64127        3.69473
H         -4.07338        5.29925        3.13133
