 xtb: 6.7.1 (edcfbbe)
          12202406583D

 38 40  0     0  0            999 V2000
    1.0045    0.0515    0.1323 C   0  0  0  0  0  0  0  0  0  0  0  0
    0.2285   -0.4529   -0.9381 O   0  0  0  0  0  0  0  0  0  0  0  0
    0.7569   -0.5685   -2.1589 C   0  0  0  0  0  0  0  0  0  0  0  0
    2.0818   -0.2084   -2.4883 C   0  0  0  0  0  0  0  0  0  0  0  0
    2.5802   -0.3458   -3.7643 C   0  0  0  0  0  0  0  0  0  0  0  0
    1.7297   -0.8582   -4.7351 C   0  0  0  0  0  0  0  0  0  0  0  0
    0.4061   -1.2225   -4.4142 C   0  0  0  0  0  0  0  0  0  0  0  0
   -0.0996   -1.0828   -3.1369 C   0  0  0  0  0  0  0  0  0  0  0  0
   -0.1666   -1.6819   -5.5867 N   0  0  0  0  0  0  0  0  0  0  0  0
   -1.5172   -2.1621   -5.7139 C   0  0  0  0  0  0  0  0  0  0  0  0
   -1.7339   -3.4332   -4.8401 C   0  0  0  0  0  0  0  0  0  0  0  0
   -2.1973   -3.2902   -3.7360 O   0  0  0  0  0  0  0  0  0  0  0  0
   -1.3539   -4.7353   -5.3960 C   0  0  0  0  0  0  0  0  0  0  0  0
   -0.7345   -4.9139   -6.6362 C   0  0  0  0  0  0  0  0  0  0  0  0
   -0.4102   -6.1835   -7.0729 C   0  0  0  0  0  0  0  0  0  0  0  0
   -0.7025   -7.2914   -6.2905 C   0  0  0  0  0  0  0  0  0  0  0  0
   -1.3193   -7.1283   -5.0594 C   0  0  0  0  0  0  0  0  0  0  0  0
   -1.6394   -5.8623   -4.6141 C   0  0  0  0  0  0  0  0  0  0  0  0
    0.7544   -1.5993   -6.5465 C   0  0  0  0  0  0  0  0  0  0  0  0
    1.8988   -1.1133   -6.0798 N   0  0  0  0  0  0  0  0  0  0  0  0
    3.1036   -0.8773   -6.8268 C   0  0  0  0  0  0  0  0  0  0  0  0
    0.3454    0.0338    0.9978 H   0  0  0  0  0  0  0  0  0  0  0  0
    1.3252    1.0793   -0.0563 H   0  0  0  0  0  0  0  0  0  0  0  0
    1.8742   -0.5811    0.3283 H   0  0  0  0  0  0  0  0  0  0  0  0
    2.7298    0.1883   -1.7244 H   0  0  0  0  0  0  0  0  0  0  0  0
    3.5939   -0.0619   -3.9940 H   0  0  0  0  0  0  0  0  0  0  0  0
   -1.1025   -1.3667   -2.8666 H   0  0  0  0  0  0  0  0  0  0  0  0
   -2.1994   -1.3993   -5.3254 H   0  0  0  0  0  0  0  0  0  0  0  0
   -1.7472   -2.3539   -6.7614 H   0  0  0  0  0  0  0  0  0  0  0  0
   -0.5037   -4.0729   -7.2717 H   0  0  0  0  0  0  0  0  0  0  0  0
    0.0673   -6.3143   -8.0320 H   0  0  0  0  0  0  0  0  0  0  0  0
   -0.4515   -8.2796   -6.6439 H   0  0  0  0  0  0  0  0  0  0  0  0
   -1.5505   -7.9884   -4.4508 H   0  0  0  0  0  0  0  0  0  0  0  0
   -2.1208   -5.7135   -3.6596 H   0  0  0  0  0  0  0  0  0  0  0  0
    0.5909   -1.8698   -7.5727 H   0  0  0  0  0  0  0  0  0  0  0  0
    2.9656   -1.1880   -7.8599 H   0  0  0  0  0  0  0  0  0  0  0  0
    3.3554    0.1840   -6.8032 H   0  0  0  0  0  0  0  0  0  0  0  0
    3.9290   -1.4408   -6.3899 H   0  0  0  0  0  0  0  0  0  0  0  0
  1  2  1  0  0  0  0
  2  3  1  0  0  0  0
  3  4  4  0  0  0  0
  4  5  2  0  0  0  0
  5  6  4  0  0  0  0
  6  7  4  0  0  0  0
  3  8  4  0  0  0  0
  7  8  4  0  0  0  0
  7  9  1  0  0  0  0
  9 10  1  0  0  0  0
 10 11  1  0  0  0  0
 11 12  2  0  0  0  0
 11 13  1  0  0  0  0
 13 14  4  0  0  0  0
 14 15  4  0  0  0  0
 15 16  4  0  0  0  0
 16 17  4  0  0  0  0
 13 18  4  0  0  0  0
 17 18  4  0  0  0  0
  9 19  4  0  0  0  0
  6 20  1  0  0  0  0
 19 20  4  0  0  0  0
 20 21  1  0  0  0  0
  1 22  1  0  0  0  0
  1 23  1  0  0  0  0
  1 24  1  0  0  0  0
  4 25  1  0  0  0  0
  5 26  1  0  0  0  0
  8 27  1  0  0  0  0
 10 28  1  0  0  0  0
 10 29  1  0  0  0  0
 14 30  1  0  0  0  0
 15 31  1  0  0  0  0
 16 32  1  0  0  0  0
 17 33  1  0  0  0  0
 18 34  1  0  0  0  0
 19 35  1  0  0  0  0
 21 36  1  0  0  0  0
 21 37  1  0  0  0  0
 21 38  1  0  0  0  0
M  CHG  1   1   1
M  END
