34

O          1.37283        0.22596        0.43938
C          2.59531        0.21714        0.30837
C          3.32362        1.49825        0.10557
C          4.57435        1.55109       -0.52136
C          5.23393        2.77609       -0.64896
C          4.64988        3.94295       -0.15656
C          3.39819        3.89481        0.45365
C          2.73157        2.67615        0.58025
C          3.41220       -1.06863        0.39263
N          2.72215       -2.26207        1.14875
C          1.30201       -2.60491        0.57271
C          1.19146       -2.70597       -0.94405
O          2.17723       -2.88129       -1.66134
C         -0.19143       -2.58192       -1.52526
C          3.62679       -3.48418        1.03294
C          2.56132       -1.89925        2.61971
H          5.05361        0.67053       -0.93926
H          6.20401        2.82865       -1.14031
H          5.16695        4.89554       -0.25811
H          2.94092        4.80884        0.82764
H          1.75257        2.65689        1.05633
H          3.66521       -1.40905       -0.61360
H          4.33951       -0.87873        0.94504
H          1.01812       -3.57141        1.00496
H          0.60099       -1.85623        0.94868
H         -0.89301       -3.18468       -0.94302
H         -0.49649       -1.53294       -1.51194
H         -0.19182       -2.94851       -2.55534
H          4.58832       -3.24280        1.49642
H          3.15398       -4.31716        1.56138
H          3.77326       -3.73156       -0.01988
H          3.54948       -1.67392        3.03155
H          1.90744       -1.02766        2.70465
H          2.11926       -2.75495        3.13845
