 xtb: 6.7.1 (edcfbbe)
          12202406593D

 34 34  0     0  0            999 V2000
    1.5237    0.3278    1.2388 O   0  0  0  0  0  0  0  0  0  0  0  0
    2.6362    0.3014    0.7519 C   0  0  0  0  0  0  0  0  0  0  0  0
    3.3467    1.4983    0.3066 C   0  0  0  0  0  0  0  0  0  0  0  0
    4.5642    1.4756   -0.3851 C   0  0  0  0  0  0  0  0  0  0  0  0
    5.1663    2.6605   -0.7578 C   0  0  0  0  0  0  0  0  0  0  0  0
    4.5760    3.8788   -0.4489 C   0  0  0  0  0  0  0  0  0  0  0  0
    3.3671    3.9135    0.2298 C   0  0  0  0  0  0  0  0  0  0  0  0
    2.7551    2.7346    0.6014 C   0  0  0  0  0  0  0  0  0  0  0  0
    3.3855   -1.0298    0.5798 C   0  0  0  0  0  0  0  0  0  0  0  0
    2.6961   -2.2208    1.1521 N   0  0  0  0  0  0  0  0  0  0  0  0
    1.3471   -2.4159    0.5505 C   0  0  0  0  0  0  0  0  0  0  0  0
    1.3130   -2.5636   -0.9736 C   0  0  0  0  0  0  0  0  0  0  0  0
    2.3091   -2.5207   -1.6469 O   0  0  0  0  0  0  0  0  0  0  0  0
   -0.0656   -2.7243   -1.5173 C   0  0  0  0  0  0  0  0  0  0  0  0
    3.5309   -3.4130    0.8969 C   0  0  0  0  0  0  0  0  0  0  0  0
    2.5418   -2.0542    2.6122 C   0  0  0  0  0  0  0  0  0  0  0  0
    5.0403    0.5449   -0.6514 H   0  0  0  0  0  0  0  0  0  0  0  0
    6.1021    2.6376   -1.2942 H   0  0  0  0  0  0  0  0  0  0  0  0
    5.0585    4.7986   -0.7413 H   0  0  0  0  0  0  0  0  0  0  0  0
    2.9049    4.8588    0.4669 H   0  0  0  0  0  0  0  0  0  0  0  0
    1.8150    2.7416    1.1320 H   0  0  0  0  0  0  0  0  0  0  0  0
    3.5281   -1.2047   -0.4908 H   0  0  0  0  0  0  0  0  0  0  0  0
    4.3644   -0.9421    1.0548 H   0  0  0  0  0  0  0  0  0  0  0  0
    0.8958   -3.3049    0.9961 H   0  0  0  0  0  0  0  0  0  0  0  0
    0.7308   -1.5495    0.8145 H   0  0  0  0  0  0  0  0  0  0  0  0
   -0.7028   -3.3119   -0.8632 H   0  0  0  0  0  0  0  0  0  0  0  0
   -0.5119   -1.7351   -1.6223 H   0  0  0  0  0  0  0  0  0  0  0  0
   -0.0215   -3.1723   -2.5067 H   0  0  0  0  0  0  0  0  0  0  0  0
    4.5032   -3.2981    1.3717 H   0  0  0  0  0  0  0  0  0  0  0  0
    3.0473   -4.2990    1.3040 H   0  0  0  0  0  0  0  0  0  0  0  0
    3.6743   -3.5486   -0.1736 H   0  0  0  0  0  0  0  0  0  0  0  0
    3.5163   -1.9058    3.0740 H   0  0  0  0  0  0  0  0  0  0  0  0
    1.9136   -1.1911    2.8257 H   0  0  0  0  0  0  0  0  0  0  0  0
    2.0822   -2.9414    3.0434 H   0  0  0  0  0  0  0  0  0  0  0  0
  1  2  2  0  0  0  0
  2  3  1  0  0  0  0
  3  4  4  0  0  0  0
  4  5  4  0  0  0  0
  5  6  4  0  0  0  0
  6  7  4  0  0  0  0
  3  8  4  0  0  0  0
  7  8  4  0  0  0  0
  2  9  1  0  0  0  0
  9 10  1  0  0  0  0
 10 11  1  0  0  0  0
 11 12  1  0  0  0  0
 12 13  2  0  0  0  0
 12 14  1  0  0  0  0
 10 15  1  0  0  0  0
 10 16  1  0  0  0  0
  4 17  1  0  0  0  0
  5 18  1  0  0  0  0
  6 19  1  0  0  0  0
  7 20  1  0  0  0  0
  8 21  1  0  0  0  0
  9 22  1  0  0  0  0
  9 23  1  0  0  0  0
 11 24  1  0  0  0  0
 11 25  1  0  0  0  0
 14 26  1  0  0  0  0
 14 27  1  0  0  0  0
 14 28  1  0  0  0  0
 15 29  1  0  0  0  0
 15 30  1  0  0  0  0
 15 31  1  0  0  0  0
 16 32  1  0  0  0  0
 16 33  1  0  0  0  0
 16 34  1  0  0  0  0
M  CHG  1   1   1
M  END
