 xtb: 6.7.1 (edcfbbe)
          12202406583D

 20 19  0     0  0            999 V2000
    1.0072    0.0222   -0.1133 C   0  0  0  0  0  0  0  0  0  0  0  0
    0.5701   -1.3348   -0.6409 C   0  0  0  0  0  0  0  0  0  0  0  0
    1.0596   -2.5190    0.1332 N   0  0  0  0  0  0  0  0  0  0  0  0
    0.5683   -2.4768    1.5225 C   0  0  0  0  0  0  0  0  0  0  0  0
    0.5416   -3.7377   -0.5184 C   0  0  0  0  0  0  0  0  0  0  0  0
    2.5328   -2.5707    0.1365 C   0  0  0  0  0  0  0  0  0  0  0  0
    0.6380    0.2173    0.8891 H   0  0  0  0  0  0  0  0  0  0  0  0
    0.5831    0.7815   -0.7659 H   0  0  0  0  0  0  0  0  0  0  0  0
    2.0855    0.1481   -0.1322 H   0  0  0  0  0  0  0  0  0  0  0  0
   -0.5211   -1.3800   -0.6495 H   0  0  0  0  0  0  0  0  0  0  0  0
    0.9228   -1.4490   -1.6682 H   0  0  0  0  0  0  0  0  0  0  0  0
   -0.5165   -2.3850    1.5358 H   0  0  0  0  0  0  0  0  0  0  0  0
    0.8476   -3.3908    2.0439 H   0  0  0  0  0  0  0  0  0  0  0  0
    1.0007   -1.6330    2.0550 H   0  0  0  0  0  0  0  0  0  0  0  0
    0.8974   -3.7988   -1.5457 H   0  0  0  0  0  0  0  0  0  0  0  0
    0.8777   -4.6236    0.0180 H   0  0  0  0  0  0  0  0  0  0  0  0
   -0.5472   -3.7297   -0.5266 H   0  0  0  0  0  0  0  0  0  0  0  0
    2.9128   -2.5490   -0.8835 H   0  0  0  0  0  0  0  0  0  0  0  0
    2.9435   -1.7259    0.6844 H   0  0  0  0  0  0  0  0  0  0  0  0
    2.8719   -3.4876    0.6158 H   0  0  0  0  0  0  0  0  0  0  0  0
  1  2  1  0  0  0  0
  2  3  1  0  0  0  0
  3  4  1  0  0  0  0
  3  5  1  0  0  0  0
  3  6  1  0  0  0  0
  1  7  1  0  0  0  0
  1  8  1  0  0  0  0
  1  9  1  0  0  0  0
  2 10  1  0  0  0  0
  2 11  1  0  0  0  0
  4 12  1  0  0  0  0
  4 13  1  0  0  0  0
  4 14  1  0  0  0  0
  5 15  1  0  0  0  0
  5 16  1  0  0  0  0
  5 17  1  0  0  0  0
  6 18  1  0  0  0  0
  6 19  1  0  0  0  0
  6 20  1  0  0  0  0
M  CHG  1   1   1
M  END
