 xtb: 6.7.1 (edcfbbe)
          12202406593D

 36 35  0     0  0            999 V2000
    0.9416    0.0504   -0.1709 C   0  0  0  0  0  0  0  0  0  0  0  0
    0.7000   -1.1933    0.6730 C   0  0  0  0  0  0  0  0  0  0  0  0
    1.0481   -1.0625    2.1185 N   0  0  0  0  0  0  0  0  0  0  0  0
    0.4289    0.1638    2.7191 C   0  0  0  0  0  0  0  0  0  0  0  0
   -1.1016    0.2579    2.7691 C   0  0  0  0  0  0  0  0  0  0  0  0
   -1.7435   -0.2320    4.0568 C   0  0  0  0  0  0  0  0  0  0  0  0
   -0.9148    0.5181    5.4851 S   0  0  0  0  0  0  0  0  0  0  0  0
   -0.2568    1.7128    5.0752 O   0  0  0  0  0  0  0  0  0  0  0  0
   -1.7520    0.5043    6.6299 O   0  0  0  0  0  0  0  0  0  0  0  0
    0.2372   -0.6234    5.7228 O   0  0  0  0  0  0  0  0  0  0  0  0
    0.5271   -2.2487    2.8680 C   0  0  0  0  0  0  0  0  0  0  0  0
    1.1884   -3.5910    2.5958 C   0  0  0  0  0  0  0  0  0  0  0  0
    2.5317   -0.9065    2.3288 C   0  0  0  0  0  0  0  0  0  0  0  0
    3.4673   -1.6388    1.3754 C   0  0  0  0  0  0  0  0  0  0  0  0
    0.2126    0.8301    0.0285 H   0  0  0  0  0  0  0  0  0  0  0  0
    0.8388   -0.2276   -1.2169 H   0  0  0  0  0  0  0  0  0  0  0  0
    1.9387    0.4577   -0.0370 H   0  0  0  0  0  0  0  0  0  0  0  0
   -0.3538   -1.4673    0.6026 H   0  0  0  0  0  0  0  0  0  0  0  0
    1.2815   -2.0220    0.2721 H   0  0  0  0  0  0  0  0  0  0  0  0
    0.8097    0.2680    3.7343 H   0  0  0  0  0  0  0  0  0  0  0  0
    0.7973    1.0149    2.1478 H   0  0  0  0  0  0  0  0  0  0  0  0
   -1.3336    1.3221    2.6974 H   0  0  0  0  0  0  0  0  0  0  0  0
   -1.5691   -0.2297    1.9119 H   0  0  0  0  0  0  0  0  0  0  0  0
   -2.7772    0.0947    4.1225 H   0  0  0  0  0  0  0  0  0  0  0  0
   -1.7021   -1.3021    4.2218 H   0  0  0  0  0  0  0  0  0  0  0  0
    0.2696   -0.8513    6.6552 H   0  0  0  0  0  0  0  0  0  0  0  0
    0.6248   -2.0177    3.9309 H   0  0  0  0  0  0  0  0  0  0  0  0
   -0.5322   -2.3363    2.6239 H   0  0  0  0  0  0  0  0  0  0  0  0
    2.2106   -3.6285    2.9577 H   0  0  0  0  0  0  0  0  0  0  0  0
    0.6277   -4.3460    3.1424 H   0  0  0  0  0  0  0  0  0  0  0  0
    1.1600   -3.8673    1.5458 H   0  0  0  0  0  0  0  0  0  0  0  0
    2.7642    0.1572    2.2609 H   0  0  0  0  0  0  0  0  0  0  0  0
    2.7338   -1.2194    3.3542 H   0  0  0  0  0  0  0  0  0  0  0  0
    3.4253   -1.2395    0.3668 H   0  0  0  0  0  0  0  0  0  0  0  0
    4.4795   -1.4793    1.7406 H   0  0  0  0  0  0  0  0  0  0  0  0
    3.3019   -2.7089    1.3372 H   0  0  0  0  0  0  0  0  0  0  0  0
  1  2  1  0  0  0  0
  2  3  1  0  0  0  0
  3  4  1  0  0  0  0
  4  5  1  0  0  0  0
  5  6  1  0  0  0  0
  6  7  1  0  0  0  0
  7  8  2  0  0  0  0
  7  9  2  0  0  0  0
  7 10  1  0  0  0  0
  3 11  1  0  0  0  0
 11 12  1  0  0  0  0
  3 13  1  0  0  0  0
 13 14  1  0  0  0  0
  1 15  1  0  0  0  0
  1 16  1  0  0  0  0
  1 17  1  0  0  0  0
  2 18  1  0  0  0  0
  2 19  1  0  0  0  0
  4 20  1  0  0  0  0
  4 21  1  0  0  0  0
  5 22  1  0  0  0  0
  5 23  1  0  0  0  0
  6 24  1  0  0  0  0
  6 25  1  0  0  0  0
 10 26  1  0  0  0  0
 11 27  1  0  0  0  0
 11 28  1  0  0  0  0
 12 29  1  0  0  0  0
 12 30  1  0  0  0  0
 12 31  1  0  0  0  0
 13 32  1  0  0  0  0
 13 33  1  0  0  0  0
 14 34  1  0  0  0  0
 14 35  1  0  0  0  0
 14 36  1  0  0  0  0
M  CHG  1   1   1
M  END
