22

C          0.87853       -0.33435        0.53423
C          0.36568       -0.73209       -0.64357
C         -1.04841       -0.49987       -1.00206
O         -1.48595       -0.67985       -2.12377
O         -1.79914       -0.05637        0.01004
C          1.13152       -1.49839       -1.67902
N          1.76996       -0.69240       -2.76484
C          1.54042        0.63213       -2.94072
C          2.16699        1.33498       -3.96587
C          3.03069        0.67154       -4.82473
C          3.24827       -0.68601       -4.64757
C          2.60333       -1.35020       -3.61151
H          0.28049        0.19698        1.27349
H          1.91091       -0.52874        0.81256
H         -2.71348        0.04196       -0.33494
H          1.95615       -2.04020       -1.19595
H          0.50503       -2.24830       -2.17796
H          0.85854        1.14377       -2.26977
H          1.97726        2.39881       -4.09524
H          3.52640        1.20940       -5.63181
H          3.91591       -1.22562       -5.31618
H          2.74790       -2.41531       -3.44903
