39

N          1.06532        0.05737       -0.04942
C          2.32628        0.05737       -0.04942
C          3.84628        0.05737       -0.04942
C          4.31036       -0.66506       -1.32890
C          3.52287       -0.34706       -2.61884
N          4.15595        0.66687       -3.47139
C          4.95323        0.29292       -4.48575
N          5.47117        1.38123       -5.07299
C          4.99903        2.51230       -4.40646
C          4.03436        2.06704       -3.47557
C          3.22776        2.99527       -2.79247
C          2.03585        2.66277       -1.95906
C          3.56637        4.35569       -2.97132
C          4.58456        4.77568       -3.83713
C          5.30403        3.85808       -4.59855
C          6.30691        1.36390       -6.30254
C          7.76025        0.94363       -6.03736
C          7.82758       -0.41087       -5.48799
N          7.75372       -1.46925       -5.02245
C          5.62769        0.54970       -7.40846
H          4.20440        1.09190       -0.05204
H          4.23268       -0.44274        0.84368
H          5.38243       -0.49331       -1.47865
H          4.19279       -1.74167       -1.14176
H          3.50215       -1.27114       -3.21459
H          2.47256       -0.10222       -2.47874
H          5.13285       -0.73559       -4.77829
H          1.55389        1.74392       -2.29179
H          2.31873        2.60425       -0.90655
H          1.27354        3.44537       -2.05353
H          2.99635        5.12111       -2.43870
H          4.78847        5.84176       -3.93927
H          6.06142        4.18474       -5.29938
H          6.34272        2.39469       -6.67632
H          8.33974        1.00273       -6.96519
H          8.21202        1.64323       -5.32501
H          4.61528        0.92832       -7.58934
H          6.18851        0.62191       -8.34567
H          5.53541       -0.50882       -7.14714
