35

C          1.70724       -0.24691       -0.54813
C          0.70302        0.58198        0.20881
O         -0.46066        0.67363       -0.18164
C          1.20207        1.32971        1.43904
N          0.30173        1.33621        2.72107
C          0.47702        0.02926        3.53756
C         -0.49282       -1.10382        3.30946
C         -0.16154       -2.08950        2.35930
C         -1.01129       -3.16585        2.10377
C         -2.20769       -3.28271        2.79695
C         -2.54895       -2.32937        3.75213
C         -1.70244       -1.24009        4.03094
C         -2.17454       -0.28932        5.10039
C          0.78170        2.49647        3.59885
C         -1.15799        1.61957        2.35773
H          1.47276       -0.21441       -1.61568
H          1.67075       -1.27877       -0.19516
H          2.71444        0.15439       -0.41074
H          2.18143        0.94891        1.74715
H          1.32906        2.37641        1.13630
H          0.47444        0.30109        4.59847
H          1.50247       -0.31898        3.35691
H          0.77894       -2.05180        1.81704
H         -0.73828       -3.92089        1.36942
H         -2.87233       -4.12221        2.60415
H         -3.48740       -2.44815        4.29399
H         -3.07075        0.23790        4.75700
H         -2.41716       -0.84336        6.01376
H         -1.43269        0.46239        5.37363
H          0.66558        3.42983        3.03967
H          0.16837        2.52592        4.50505
H          1.83233        2.32474        3.85050
H         -1.18371        2.50339        1.71283
H         -1.59575        0.75874        1.85128
H         -1.70840        1.82547        3.27920
