36

C          0.89809        0.03851       -0.20653
C          0.60543       -1.17725        0.65852
N          1.12181       -1.05467        2.11148
C          0.55767        0.24326        2.82094
C         -0.97101        0.40238        2.84309
C         -1.73986       -0.16841        4.03702
S         -1.21135        0.47161        5.61933
O         -0.62166        1.77545        5.43462
O         -2.20110        0.17455        6.62198
O         -0.00299       -0.56927        5.88007
C          0.65339       -2.27216        2.94038
C          1.22651       -3.61987        2.54634
C          2.67449       -0.87602        2.18224
C          3.50881       -1.79247        1.30019
H          0.37874        0.93303        0.14687
H          0.54590       -0.15048       -1.22652
H          1.96725        0.25690       -0.26882
H         -0.47178       -1.36374        0.70408
H          1.05748       -2.06704        0.21451
H          1.00753        0.27223        3.81588
H          0.98023        1.08965        2.26740
H         -1.16447        1.48451        2.83893
H         -1.43019        0.03653        1.92181
H         -2.79275        0.12334        3.94231
H         -1.72198       -1.25787        4.09152
H         -0.01392       -0.78791        6.84294
H          0.89235       -2.06573        3.98754
H         -0.43116       -2.32212        2.82076
H          2.23522       -3.75312        2.94365
H          0.62014       -4.41239        3.00017
H          1.22844       -3.79541        1.46908
H          2.88340        0.15809        1.88484
H          2.95937       -0.98483        3.23506
H          3.18124       -1.81440        0.25941
H          4.54264       -1.42740        1.29336
H          3.55785       -2.81464        1.67290
