 xtb: 6.7.1 (edcfbbe)
          12202406593D

 45 48  0     0  0            999 V2000
    2.4876    0.1468   -0.0518 C   0  0  0  0  0  0  0  0  0  0  0  0
    0.9952    0.1160   -0.0461 C   0  0  0  0  0  0  0  0  0  0  0  0
    0.3160   -1.0991    0.0094 C   0  0  0  0  0  0  0  0  0  0  0  0
   -1.0638   -1.1471    0.0068 C   0  0  0  0  0  0  0  0  0  0  0  0
   -1.7865    0.0384   -0.0470 C   0  0  0  0  0  0  0  0  0  0  0  0
   -1.1298    1.2605   -0.1098 C   0  0  0  0  0  0  0  0  0  0  0  0
    0.2529    1.2901   -0.1094 C   0  0  0  0  0  0  0  0  0  0  0  0
   -3.2083    0.0045   -0.0380 N   0  0  0  0  0  0  0  0  0  0  0  0
   -4.0179    0.5586   -1.0046 C   0  0  0  0  0  0  0  0  0  0  0  0
   -3.5297    1.2934   -2.0346 N   0  0  0  0  0  0  0  0  0  0  0  0
   -5.3084    0.2616   -0.6502 C   0  0  0  0  0  0  0  0  0  0  0  0
   -5.2602   -0.4554    0.5196 N   0  0  0  0  0  0  0  0  0  0  0  0
   -3.9845   -0.6133    0.8838 C   0  0  0  0  0  0  0  0  0  0  0  0
   -3.4977   -1.3487    2.0416 C   0  0  0  0  0  0  0  0  0  0  0  0
   -2.4756   -0.8246    2.8342 C   0  0  0  0  0  0  0  0  0  0  0  0
   -2.0159   -1.5367    3.9257 C   0  0  0  0  0  0  0  0  0  0  0  0
   -2.5633   -2.7715    4.2352 C   0  0  0  0  0  0  0  0  0  0  0  0
   -3.5783   -3.2960    3.4506 C   0  0  0  0  0  0  0  0  0  0  0  0
   -4.0479   -2.5921    2.3587 C   0  0  0  0  0  0  0  0  0  0  0  0
   -6.4109   -0.8738    1.2366 C   0  0  0  0  0  0  0  0  0  0  0  0
   -6.5096   -0.6225    2.5993 C   0  0  0  0  0  0  0  0  0  0  0  0
   -7.6452   -1.0219    3.2804 C   0  0  0  0  0  0  0  0  0  0  0  0
   -8.6750   -1.6602    2.6077 C   0  0  0  0  0  0  0  0  0  0  0  0
   -8.5735   -1.8996    1.2473 C   0  0  0  0  0  0  0  0  0  0  0  0
   -7.4418   -1.5065    0.5546 C   0  0  0  0  0  0  0  0  0  0  0  0
    2.8893   -0.5415    0.6884 H   0  0  0  0  0  0  0  0  0  0  0  0
    2.8612   -0.1645   -1.0272 H   0  0  0  0  0  0  0  0  0  0  0  0
    2.8610    1.1460    0.1529 H   0  0  0  0  0  0  0  0  0  0  0  0
    0.8777   -2.0194    0.0541 H   0  0  0  0  0  0  0  0  0  0  0  0
   -1.5803   -2.0939    0.0479 H   0  0  0  0  0  0  0  0  0  0  0  0
   -1.6973    2.1785   -0.1381 H   0  0  0  0  0  0  0  0  0  0  0  0
    0.7597    2.2418   -0.1522 H   0  0  0  0  0  0  0  0  0  0  0  0
   -2.5629    1.1601   -2.2844 H   0  0  0  0  0  0  0  0  0  0  0  0
   -4.1595    1.4846   -2.7952 H   0  0  0  0  0  0  0  0  0  0  0  0
   -6.2320    0.5349   -1.1130 H   0  0  0  0  0  0  0  0  0  0  0  0
   -2.0585    0.1444    2.6064 H   0  0  0  0  0  0  0  0  0  0  0  0
   -1.2292   -1.1241    4.5375 H   0  0  0  0  0  0  0  0  0  0  0  0
   -2.2001   -3.3244    5.0871 H   0  0  0  0  0  0  0  0  0  0  0  0
   -4.0043   -4.2582    3.6875 H   0  0  0  0  0  0  0  0  0  0  0  0
   -4.8275   -3.0103    1.7400 H   0  0  0  0  0  0  0  0  0  0  0  0
   -5.7108   -0.1124    3.1151 H   0  0  0  0  0  0  0  0  0  0  0  0
   -7.7267   -0.8271    4.3379 H   0  0  0  0  0  0  0  0  0  0  0  0
   -9.5590   -1.9673    3.1437 H   0  0  0  0  0  0  0  0  0  0  0  0
   -9.3749   -2.3938    0.7214 H   0  0  0  0  0  0  0  0  0  0  0  0
   -7.3509   -1.7007   -0.5033 H   0  0  0  0  0  0  0  0  0  0  0  0
  1  2  1  0  0  0  0
  2  3  4  0  0  0  0
  3  4  4  0  0  0  0
  4  5  4  0  0  0  0
  5  6  4  0  0  0  0
  2  7  4  0  0  0  0
  6  7  4  0  0  0  0
  5  8  1  0  0  0  0
  8  9  1  0  0  0  0
  9 10  4  0  0  0  0
  9 11  4  0  0  0  0
 11 12  1  0  0  0  0
  8 13  4  0  0  0  0
 12 13  4  0  0  0  0
 13 14  1  0  0  0  0
 14 15  4  0  0  0  0
 15 16  4  0  0  0  0
 16 17  4  0  0  0  0
 17 18  4  0  0  0  0
 14 19  4  0  0  0  0
 18 19  4  0  0  0  0
 12 20  1  0  0  0  0
 20 21  4  0  0  0  0
 21 22  4  0  0  0  0
 22 23  4  0  0  0  0
 23 24  4  0  0  0  0
 20 25  4  0  0  0  0
 24 25  4  0  0  0  0
  1 26  1  0  0  0  0
  1 27  1  0  0  0  0
  1 28  1  0  0  0  0
  3 29  1  0  0  0  0
  4 30  1  0  0  0  0
  6 31  1  0  0  0  0
  7 32  1  0  0  0  0
 10 33  1  0  0  0  0
 10 34  1  0  0  0  0
 11 35  1  0  0  0  0
 15 36  1  0  0  0  0
 16 37  1  0  0  0  0
 17 38  1  0  0  0  0
 18 39  1  0  0  0  0
 19 40  1  0  0  0  0
 21 41  1  0  0  0  0
 22 42  1  0  0  0  0
 23 43  1  0  0  0  0
 24 44  1  0  0  0  0
 25 45  1  0  0  0  0
M  CHG  1   1   1
M  END
