 xtb: 6.7.1 (edcfbbe)
          12202406593D

 40 42  0     0  0            999 V2000
   -2.2969    1.0220   -0.4278 Cl  0  0  0  0  0  0  0  0  0  0  0  0
   -0.8684    0.0814   -0.2899 C   0  0  0  0  0  0  0  0  0  0  0  0
   -0.7855   -1.1602   -0.9102 C   0  0  0  0  0  0  0  0  0  0  0  0
    0.3712   -1.9051   -0.7873 C   0  0  0  0  0  0  0  0  0  0  0  0
    1.4602   -1.4403   -0.0583 C   0  0  0  0  0  0  0  0  0  0  0  0
    1.3609   -0.1887    0.5479 C   0  0  0  0  0  0  0  0  0  0  0  0
    0.2062    0.5684    0.4438 C   0  0  0  0  0  0  0  0  0  0  0  0
    2.6772    0.4505    1.4669 Cl  0  0  0  0  0  0  0  0  0  0  0  0
    2.7078   -2.2801    0.0719 C   0  0  0  0  0  0  0  0  0  0  0  0
    3.6661   -1.9686   -0.9717 N   0  0  0  0  0  0  0  0  0  0  0  0
    4.6180   -1.0015   -0.9171 C   0  0  0  0  0  0  0  0  0  0  0  0
    5.3026   -1.0218   -2.0952 C   0  0  0  0  0  0  0  0  0  0  0  0
    4.7334   -1.9970   -2.8524 N   0  0  0  0  0  0  0  0  0  0  0  0
    3.7429   -2.5573   -2.1627 C   0  0  0  0  0  0  0  0  0  0  0  0
    5.1137   -2.4535   -4.0708 O   0  0  0  0  0  0  0  0  0  0  0  0
    5.3958   -1.4623   -5.0688 C   0  0  0  0  0  0  0  0  0  0  0  0
    4.1559   -0.6792   -5.5043 C   0  0  0  0  0  0  0  0  0  0  0  0
    3.6475    0.2321   -4.4172 C   0  0  0  0  0  0  0  0  0  0  0  0
    4.3876    1.3460   -4.0348 C   0  0  0  0  0  0  0  0  0  0  0  0
    3.9506    2.1624   -3.0071 C   0  0  0  0  0  0  0  0  0  0  0  0
    2.7609    1.8814   -2.3558 C   0  0  0  0  0  0  0  0  0  0  0  0
    2.0050    0.7894   -2.7457 C   0  0  0  0  0  0  0  0  0  0  0  0
    2.4503   -0.0340   -3.7656 C   0  0  0  0  0  0  0  0  0  0  0  0
   -1.6228   -1.5361   -1.4742 H   0  0  0  0  0  0  0  0  0  0  0  0
    0.4232   -2.8759   -1.2560 H   0  0  0  0  0  0  0  0  0  0  0  0
    0.1378    1.5292    0.9284 H   0  0  0  0  0  0  0  0  0  0  0  0
    3.1831   -2.0855    1.0355 H   0  0  0  0  0  0  0  0  0  0  0  0
    2.4512   -3.3384   -0.0008 H   0  0  0  0  0  0  0  0  0  0  0  0
    4.7454   -0.3712   -0.0604 H   0  0  0  0  0  0  0  0  0  0  0  0
    6.1280   -0.4230   -2.4187 H   0  0  0  0  0  0  0  0  0  0  0  0
    3.1439   -3.3728   -2.5171 H   0  0  0  0  0  0  0  0  0  0  0  0
    6.1895   -0.7921   -4.7267 H   0  0  0  0  0  0  0  0  0  0  0  0
    5.7769   -2.0724   -5.8891 H   0  0  0  0  0  0  0  0  0  0  0  0
    4.4350   -0.0902   -6.3791 H   0  0  0  0  0  0  0  0  0  0  0  0
    3.3768   -1.3819   -5.8032 H   0  0  0  0  0  0  0  0  0  0  0  0
    5.3024    1.5847   -4.5579 H   0  0  0  0  0  0  0  0  0  0  0  0
    4.5317    3.0264   -2.7247 H   0  0  0  0  0  0  0  0  0  0  0  0
    2.4132    2.5232   -1.5619 H   0  0  0  0  0  0  0  0  0  0  0  0
    1.0603    0.5841   -2.2675 H   0  0  0  0  0  0  0  0  0  0  0  0
    1.8498   -0.8801   -4.0704 H   0  0  0  0  0  0  0  0  0  0  0  0
  1  2  1  0  0  0  0
  2  3  4  0  0  0  0
  3  4  4  0  0  0  0
  4  5  4  0  0  0  0
  5  6  4  0  0  0  0
  2  7  4  0  0  0  0
  6  7  4  0  0  0  0
  6  8  1  0  0  0  0
  5  9  1  0  0  0  0
  9 10  1  0  0  0  0
 10 11  4  0  0  0  0
 11 12  2  0  0  0  0
 12 13  4  0  0  0  0
 10 14  4  0  0  0  0
 13 14  4  0  0  0  0
 13 15  1  0  0  0  0
 15 16  1  0  0  0  0
 16 17  1  0  0  0  0
 17 18  1  0  0  0  0
 18 19  4  0  0  0  0
 19 20  4  0  0  0  0
 20 21  4  0  0  0  0
 21 22  4  0  0  0  0
 18 23  4  0  0  0  0
 22 23  4  0  0  0  0
  3 24  1  0  0  0  0
  4 25  1  0  0  0  0
  7 26  1  0  0  0  0
  9 27  1  0  0  0  0
  9 28  1  0  0  0  0
 11 29  1  0  0  0  0
 12 30  1  0  0  0  0
 14 31  1  0  0  0  0
 16 32  1  0  0  0  0
 16 33  1  0  0  0  0
 17 34  1  0  0  0  0
 17 35  1  0  0  0  0
 19 36  1  0  0  0  0
 20 37  1  0  0  0  0
 21 38  1  0  0  0  0
 22 39  1  0  0  0  0
 23 40  1  0  0  0  0
M  CHG  1   1   1
M  END
