77

C          0.71592       -0.53426        0.45644
C         -0.45575       -0.77032       -0.49125
C         -0.12741       -1.78223       -1.59532
C         -0.15667       -3.25134       -1.13871
C         -1.57520       -3.76007       -0.85479
C         -1.64501       -5.27414       -0.62384
C         -0.99796       -5.78359        0.66857
C         -1.58453       -5.23196        1.97211
C         -3.09710       -5.39331        2.15197
C         -3.61934       -6.83232        2.10067
C         -3.04160       -7.78147        3.15301
C         -3.34856       -7.36124        4.58216
P          0.34438        0.04392        2.09573
C          1.09007        1.65830        2.29877
C          0.62693        2.79651        1.39527
C         -0.69232        3.47539        1.77082
C         -0.73298        4.02436        3.18860
C         -1.38277        0.16443        2.46519
C         -2.15984       -1.12163        2.72235
C         -2.29692       -1.49641        4.19912
C         -3.25392       -0.59121        4.96180
C          1.20841       -0.98583        3.27473
C          1.03959       -2.49822        3.12395
C          2.35241       -3.27855        3.23101
C          3.26709       -3.08603        2.02914
H          1.40372        0.17444       -0.02071
H          1.30256       -1.45068        0.54709
H         -1.34280       -1.09907        0.05049
H         -0.72094        0.18958       -0.95100
H         -0.84231       -1.65403       -2.41720
H          0.86347       -1.55737       -2.00891
H          0.28077       -3.86009       -1.93996
H          0.47761       -3.39106       -0.25834
H         -2.01124       -3.23195       -0.00175
H         -2.20915       -3.52676       -1.71937
H         -2.69756       -5.57955       -0.64471
H         -1.17128       -5.78499       -1.47168
H         -1.07298       -6.87774        0.68133
H          0.07566       -5.56080        0.65051
H         -1.06489       -5.70315        2.81507
H         -1.34635       -4.16751        2.04311
H         -3.38306       -4.93714        3.10741
H         -3.61780       -4.80780        1.38488
H         -4.71071       -6.80488        2.21310
H         -3.43052       -7.25537        1.10728
H         -3.46783       -8.77834        2.98657
H         -1.95869       -7.88310        3.02497
H         -4.42514       -7.23027        4.73085
H         -3.00192       -8.12858        5.28190
H         -2.84613       -6.42494        4.84186
H          1.02002        1.94894        3.35152
H          2.16158        1.51519        2.10856
H          1.40798        3.56794        1.40021
H          0.55271        2.43715        0.36313
H         -0.85174        4.30928        1.07576
H         -1.53429        2.79657        1.62016
H          0.12563        4.67360        3.38590
H         -1.64407        4.61346        3.33611
H         -0.74061        3.22122        3.93107
H         -1.51034        0.85338        3.30483
H         -1.85245        0.65340        1.60510
H         -3.16675       -1.02093        2.29802
H         -1.68112       -1.94472        2.18818
H         -2.67522       -2.52393        4.26013
H         -1.32311       -1.48541        4.69547
H         -4.23754       -0.56470        4.48243
H         -3.38595       -0.96261        5.98312
H         -2.87515        0.43253        5.02829
H          2.26886       -0.72129        3.20561
H          0.90192       -0.68840        4.28406
H          0.36971       -2.85788        3.91279
H          0.55212       -2.74561        2.17771
H          2.88266       -2.99635        4.14763
H          2.11715       -4.34639        3.31453
H          3.57468       -2.04274        1.91403
H          4.17315       -3.68918        2.14557
H          2.77124       -3.40126        1.10558
