 xtb: 6.7.1 (edcfbbe)
          12202406593D

 56 57  0     0  0            999 V2000
    2.3416   -0.6527   -0.3188 C   0  0  0  0  0  0  0  0  0  0  0  0
   -0.7217    1.7264   -0.9883 C   0  0  0  0  0  0  0  0  0  0  0  0
   -1.1595    2.0878   -2.1788 C   0  0  0  0  0  0  0  0  0  0  0  0
   -1.0570    2.4857    0.2817 C   0  0  0  0  0  0  0  0  0  0  0  0
    0.2942    2.8043    0.8774 N   0  0  0  0  0  0  0  0  0  0  0  0
    1.2024    2.0390   -0.0103 C   0  0  0  0  0  0  0  0  0  0  0  0
    2.2734    2.5248   -0.6446 C   0  0  0  0  0  0  0  0  0  0  0  0
    2.8356    1.8973   -1.8148 C   0  0  0  0  0  0  0  0  0  0  0  0
    2.2574    0.7479   -2.2678 C   0  0  0  0  0  0  0  0  0  0  0  0
    1.3449   -0.0702   -1.3572 C   0  0  0  0  0  0  0  0  0  0  0  0
    0.4326    0.8594   -0.5304 C   0  0  0  0  0  0  0  0  0  0  0  0
    0.5663   -1.2606   -2.0337 C   0  0  0  0  0  0  0  0  0  0  0  0
   -0.4684   -1.8509   -1.0622 C   0  0  0  0  0  0  0  0  0  0  0  0
   -0.2127   -0.8552   -3.2926 C   0  0  0  0  0  0  0  0  0  0  0  0
    1.5230   -2.4020   -2.4157 C   0  0  0  0  0  0  0  0  0  0  0  0
    2.5205    0.1572   -3.4324 O   0  0  0  0  0  0  0  0  0  0  0  0
    4.0035    2.6810   -2.4328 C   0  0  0  0  0  0  0  0  0  0  0  0
    3.5277    4.0873   -2.8328 C   0  0  0  0  0  0  0  0  0  0  0  0
    5.1157    2.7755   -1.3733 C   0  0  0  0  0  0  0  0  0  0  0  0
    4.6552    2.0600   -3.6780 C   0  0  0  0  0  0  0  0  0  0  0  0
    0.5346    4.2539    0.8434 C   0  0  0  0  0  0  0  0  0  0  0  0
    0.4164    2.3281    2.2663 C   0  0  0  0  0  0  0  0  0  0  0  0
    1.8461   -1.3443    0.3560 H   0  0  0  0  0  0  0  0  0  0  0  0
    2.7869    0.1428    0.2724 H   0  0  0  0  0  0  0  0  0  0  0  0
    3.1447   -1.1790   -0.8231 H   0  0  0  0  0  0  0  0  0  0  0  0
   -1.9069    2.8577   -2.2802 H   0  0  0  0  0  0  0  0  0  0  0  0
   -0.8294    1.6257   -3.0872 H   0  0  0  0  0  0  0  0  0  0  0  0
   -1.6122    3.4016    0.0885 H   0  0  0  0  0  0  0  0  0  0  0  0
   -1.6304    1.8684    0.9759 H   0  0  0  0  0  0  0  0  0  0  0  0
    2.7236    3.4478   -0.3218 H   0  0  0  0  0  0  0  0  0  0  0  0
    0.0727    0.2421    0.2979 H   0  0  0  0  0  0  0  0  0  0  0  0
   -1.2732   -1.1494   -0.8536 H   0  0  0  0  0  0  0  0  0  0  0  0
   -0.9150   -2.7263   -1.5264 H   0  0  0  0  0  0  0  0  0  0  0  0
   -0.0230   -2.1750   -0.1249 H   0  0  0  0  0  0  0  0  0  0  0  0
    0.3701   -0.2219   -3.9511 H   0  0  0  0  0  0  0  0  0  0  0  0
   -0.4729   -1.7509   -3.8506 H   0  0  0  0  0  0  0  0  0  0  0  0
   -1.1434   -0.3630   -3.0304 H   0  0  0  0  0  0  0  0  0  0  0  0
    2.3293   -2.0503   -3.0492 H   0  0  0  0  0  0  0  0  0  0  0  0
    1.9403   -2.8891   -1.5399 H   0  0  0  0  0  0  0  0  0  0  0  0
    0.9705   -3.1562   -2.9698 H   0  0  0  0  0  0  0  0  0  0  0  0
    3.1627    0.6568   -3.9541 H   0  0  0  0  0  0  0  0  0  0  0  0
    3.2265    4.6820   -1.9751 H   0  0  0  0  0  0  0  0  0  0  0  0
    4.3321    4.6196   -3.3336 H   0  0  0  0  0  0  0  0  0  0  0  0
    2.6834    4.0223   -3.5166 H   0  0  0  0  0  0  0  0  0  0  0  0
    5.4642    1.7799   -1.1075 H   0  0  0  0  0  0  0  0  0  0  0  0
    5.9569    3.3372   -1.7706 H   0  0  0  0  0  0  0  0  0  0  0  0
    4.7899    3.2729   -0.4649 H   0  0  0  0  0  0  0  0  0  0  0  0
    4.9963    1.0417   -3.4982 H   0  0  0  0  0  0  0  0  0  0  0  0
    4.0110    2.1203   -4.5559 H   0  0  0  0  0  0  0  0  0  0  0  0
    5.5428    2.6427   -3.9201 H   0  0  0  0  0  0  0  0  0  0  0  0
   -0.2224    4.7651    1.4365 H   0  0  0  0  0  0  0  0  0  0  0  0
    1.5123    4.4850    1.2616 H   0  0  0  0  0  0  0  0  0  0  0  0
    0.4901    4.6079   -0.1851 H   0  0  0  0  0  0  0  0  0  0  0  0
   -0.3180    2.8216    2.9013 H   0  0  0  0  0  0  0  0  0  0  0  0
    0.2624    1.2518    2.3091 H   0  0  0  0  0  0  0  0  0  0  0  0
    1.4158    2.5478    2.6389 H   0  0  0  0  0  0  0  0  0  0  0  0
  2  3  2  0  0  0  0
  2  4  1  0  0  0  0
  4  5  1  0  0  0  0
  5  6  1  0  0  0  0
  6  7  2  0  0  0  0
  7  8  1  0  0  0  0
  8  9  2  0  0  0  0
  1 10  1  0  0  0  0
  9 10  1  0  0  0  0
  2 11  1  0  0  0  0
  6 11  1  0  0  0  0
 10 11  1  0  0  0  0
 10 12  1  0  0  0  0
 12 13  1  0  0  0  0
 12 14  1  0  0  0  0
 12 15  1  0  0  0  0
  9 16  1  0  0  0  0
  8 17  1  0  0  0  0
 17 18  1  0  0  0  0
 17 19  1  0  0  0  0
 17 20  1  0  0  0  0
  5 21  1  0  0  0  0
  5 22  1  0  0  0  0
  1 23  1  0  0  0  0
  1 24  1  0  0  0  0
  1 25  1  0  0  0  0
  3 26  1  0  0  0  0
  3 27  1  0  0  0  0
  4 28  1  0  0  0  0
  4 29  1  0  0  0  0
  7 30  1  0  0  0  0
 11 31  1  0  0  0  0
 13 32  1  0  0  0  0
 13 33  1  0  0  0  0
 13 34  1  0  0  0  0
 14 35  1  0  0  0  0
 14 36  1  0  0  0  0
 14 37  1  0  0  0  0
 15 38  1  0  0  0  0
 15 39  1  0  0  0  0
 15 40  1  0  0  0  0
 16 41  1  0  0  0  0
 18 42  1  0  0  0  0
 18 43  1  0  0  0  0
 18 44  1  0  0  0  0
 19 45  1  0  0  0  0
 19 46  1  0  0  0  0
 19 47  1  0  0  0  0
 20 48  1  0  0  0  0
 20 49  1  0  0  0  0
 20 50  1  0  0  0  0
 21 51  1  0  0  0  0
 21 52  1  0  0  0  0
 21 53  1  0  0  0  0
 22 54  1  0  0  0  0
 22 55  1  0  0  0  0
 22 56  1  0  0  0  0
M  CHG  1   1   1
M  END
