40

Cl        -2.49587        0.45007       -0.43178
C         -0.97617       -0.31050       -0.17866
C         -0.81442       -1.65541       -0.49825
C          0.42208       -2.27484       -0.29905
C          1.51329       -1.55350        0.22232
C          1.32408       -0.19584        0.53804
C          0.08584        0.42175        0.34101
Cl         2.59661        0.77525        1.18587
C          2.83752       -2.25087        0.40599
N          3.67843       -2.00668       -0.76535
C          4.76540       -1.14211       -0.83287
C          5.25598       -1.20133       -2.10930
N          4.44919       -2.09026       -2.78412
C          3.52029       -2.59354       -1.96295
O          4.50577       -2.51663       -4.12082
C          5.16072       -1.61889       -5.02404
C          4.17201       -0.61138       -5.61618
C          3.73849        0.44680       -4.63075
C          4.58990        1.51407       -4.31195
C          4.19991        2.47184       -3.37468
C          2.95620        2.37608       -2.75310
C          2.09603        1.32849       -3.07466
C          2.48371        0.36808       -4.00935
H         -1.65185       -2.22689       -0.89498
H          0.51339       -3.33223       -0.54332
H         -0.05271        1.47088        0.59377
H          3.35132       -1.92619        1.31655
H          2.69706       -3.33446        0.50155
H          5.05745       -0.58979        0.04419
H          6.08249       -0.70905       -2.58576
H          2.77031       -3.32635       -2.23215
H          6.04798       -1.15070       -4.59213
H          5.52784       -2.24681       -5.84413
H          4.63017       -0.11395       -6.48005
H          3.28821       -1.14086       -5.99328
H          5.55543        1.62006       -4.80307
H          4.85629        3.30862       -3.14494
H          2.64606        3.13562       -2.03876
H          1.11254        1.27531       -2.61439
H          1.79103       -0.43205       -4.26041
