 xtb: 6.7.1 (edcfbbe)
          12202406593D

 50 49  0     0  0            999 V2000
    1.5348    0.2863    0.6398 C   0  0  0  0  0  0  0  0  0  0  0  0
    1.2280    1.7686    0.4625 C   0  0  0  0  0  0  0  0  0  0  0  0
    1.4349    2.2597   -0.9711 C   0  0  0  0  0  0  0  0  0  0  0  0
    0.5376    1.5944   -2.0166 C   0  0  0  0  0  0  0  0  0  0  0  0
   -0.9644    1.7675   -1.7834 C   0  0  0  0  0  0  0  0  0  0  0  0
   -1.4478    3.2184   -1.7383 C   0  0  0  0  0  0  0  0  0  0  0  0
   -1.1449    4.0395   -2.9936 C   0  0  0  0  0  0  0  0  0  0  0  0
   -1.7121    3.4621   -4.2920 C   0  0  0  0  0  0  0  0  0  0  0  0
   -3.2306    3.2751   -4.3047 C   0  0  0  0  0  0  0  0  0  0  0  0
   -4.0453    4.5453   -4.0461 C   0  0  0  0  0  0  0  0  0  0  0  0
   -3.7633    5.6993   -5.0162 C   0  0  0  0  0  0  0  0  0  0  0  0
   -4.0778    5.4011   -6.4866 C   0  0  0  0  0  0  0  0  0  0  0  0
   -5.3979    5.8842   -7.0029 N   0  0  0  0  0  0  0  0  0  0  0  0
   -5.4210    7.3566   -7.0684 C   0  0  0  0  0  0  0  0  0  0  0  0
   -5.5788    5.3506   -8.3672 C   0  0  0  0  0  0  0  0  0  0  0  0
   -6.5096    5.4118   -6.1603 C   0  0  0  0  0  0  0  0  0  0  0  0
    0.8230   -0.3313    0.0979 H   0  0  0  0  0  0  0  0  0  0  0  0
    1.4832    0.0149    1.6915 H   0  0  0  0  0  0  0  0  0  0  0  0
    2.5349    0.0593    0.2772 H   0  0  0  0  0  0  0  0  0  0  0  0
    0.2037    1.9696    0.7820 H   0  0  0  0  0  0  0  0  0  0  0  0
    1.8887    2.3448    1.1145 H   0  0  0  0  0  0  0  0  0  0  0  0
    1.2831    3.3411   -0.9963 H   0  0  0  0  0  0  0  0  0  0  0  0
    2.4740    2.0738   -1.2538 H   0  0  0  0  0  0  0  0  0  0  0  0
    0.8019    1.9941   -2.9985 H   0  0  0  0  0  0  0  0  0  0  0  0
    0.7545    0.5252   -2.0418 H   0  0  0  0  0  0  0  0  0  0  0  0
   -1.4977    1.2297   -2.5711 H   0  0  0  0  0  0  0  0  0  0  0  0
   -1.2360    1.2931   -0.8389 H   0  0  0  0  0  0  0  0  0  0  0  0
   -2.5249    3.2158   -1.5535 H   0  0  0  0  0  0  0  0  0  0  0  0
   -0.9832    3.7214   -0.8889 H   0  0  0  0  0  0  0  0  0  0  0  0
   -1.5259    5.0528   -2.8422 H   0  0  0  0  0  0  0  0  0  0  0  0
   -0.0636    4.1235   -3.1098 H   0  0  0  0  0  0  0  0  0  0  0  0
   -1.4112    4.1071   -5.1220 H   0  0  0  0  0  0  0  0  0  0  0  0
   -1.2569    2.4878   -4.4723 H   0  0  0  0  0  0  0  0  0  0  0  0
   -3.5135    2.8306   -5.2636 H   0  0  0  0  0  0  0  0  0  0  0  0
   -3.5024    2.5506   -3.5370 H   0  0  0  0  0  0  0  0  0  0  0  0
   -5.1041    4.2806   -4.0539 H   0  0  0  0  0  0  0  0  0  0  0  0
   -3.8160    4.9035   -3.0426 H   0  0  0  0  0  0  0  0  0  0  0  0
   -4.2932    6.5880   -4.6723 H   0  0  0  0  0  0  0  0  0  0  0  0
   -2.7011    5.9342   -4.9498 H   0  0  0  0  0  0  0  0  0  0  0  0
   -3.3145    5.8519   -7.1233 H   0  0  0  0  0  0  0  0  0  0  0  0
   -4.0418    4.3210   -6.6376 H   0  0  0  0  0  0  0  0  0  0  0  0
   -4.6316    7.7158   -7.7261 H   0  0  0  0  0  0  0  0  0  0  0  0
   -6.3798    7.6984   -7.4541 H   0  0  0  0  0  0  0  0  0  0  0  0
   -5.2732    7.7887   -6.0815 H   0  0  0  0  0  0  0  0  0  0  0  0
   -5.6163    4.2628   -8.3468 H   0  0  0  0  0  0  0  0  0  0  0  0
   -6.5084    5.7214   -8.7955 H   0  0  0  0  0  0  0  0  0  0  0  0
   -4.7541    5.6586   -9.0075 H   0  0  0  0  0  0  0  0  0  0  0  0
   -6.4864    4.3261   -6.0871 H   0  0  0  0  0  0  0  0  0  0  0  0
   -6.4383    5.8364   -5.1620 H   0  0  0  0  0  0  0  0  0  0  0  0
   -7.4610    5.7120   -6.5968 H   0  0  0  0  0  0  0  0  0  0  0  0
  1  2  1  0  0  0  0
  2  3  1  0  0  0  0
  3  4  1  0  0  0  0
  4  5  1  0  0  0  0
  5  6  1  0  0  0  0
  6  7  1  0  0  0  0
  7  8  1  0  0  0  0
  8  9  1  0  0  0  0
  9 10  1  0  0  0  0
 10 11  1  0  0  0  0
 11 12  1  0  0  0  0
 12 13  1  0  0  0  0
 13 14  1  0  0  0  0
 13 15  1  0  0  0  0
 13 16  1  0  0  0  0
  1 17  1  0  0  0  0
  1 18  1  0  0  0  0
  1 19  1  0  0  0  0
  2 20  1  0  0  0  0
  2 21  1  0  0  0  0
  3 22  1  0  0  0  0
  3 23  1  0  0  0  0
  4 24  1  0  0  0  0
  4 25  1  0  0  0  0
  5 26  1  0  0  0  0
  5 27  1  0  0  0  0
  6 28  1  0  0  0  0
  6 29  1  0  0  0  0
  7 30  1  0  0  0  0
  7 31  1  0  0  0  0
  8 32  1  0  0  0  0
  8 33  1  0  0  0  0
  9 34  1  0  0  0  0
  9 35  1  0  0  0  0
 10 36  1  0  0  0  0
 10 37  1  0  0  0  0
 11 38  1  0  0  0  0
 11 39  1  0  0  0  0
 12 40  1  0  0  0  0
 12 41  1  0  0  0  0
 14 42  1  0  0  0  0
 14 43  1  0  0  0  0
 14 44  1  0  0  0  0
 15 45  1  0  0  0  0
 15 46  1  0  0  0  0
 15 47  1  0  0  0  0
 16 48  1  0  0  0  0
 16 49  1  0  0  0  0
 16 50  1  0  0  0  0
M  CHG  1   1   1
M  END
