 xtb: 6.7.1 (edcfbbe)
          12202406593D

 21 21  0     0  0            999 V2000
    0.7382   -0.0222    0.0057 C   0  0  0  0  0  0  0  0  0  0  0  0
    0.3534    0.1659   -1.3638 O   0  0  0  0  0  0  0  0  0  0  0  0
    0.8484    1.1800   -1.9998 C   0  0  0  0  0  0  0  0  0  0  0  0
    1.6166    2.0200   -1.5877 O   0  0  0  0  0  0  0  0  0  0  0  0
    0.3785    1.2736   -3.4718 C   0  0  0  0  0  0  0  0  0  0  0  0
    0.9226    0.1156   -4.3172 C   0  0  0  0  0  0  0  0  0  0  0  0
    2.2713    0.6453   -4.8000 C   0  0  0  0  0  0  0  0  0  0  0  0
    1.9510    2.0997   -5.1127 C   0  0  0  0  0  0  0  0  0  0  0  0
    1.0478    2.4970   -3.9975 N   0  0  0  0  0  0  0  0  0  0  0  0
    0.2851   -0.9593    0.3158 H   0  0  0  0  0  0  0  0  0  0  0  0
    0.3678    0.8026    0.6149 H   0  0  0  0  0  0  0  0  0  0  0  0
    1.8244   -0.0707    0.0888 H   0  0  0  0  0  0  0  0  0  0  0  0
   -0.7092    1.3439   -3.5033 H   0  0  0  0  0  0  0  0  0  0  0  0
    1.0065   -0.8003   -3.7377 H   0  0  0  0  0  0  0  0  0  0  0  0
    0.2631   -0.0757   -5.1633 H   0  0  0  0  0  0  0  0  0  0  0  0
    3.0209    0.5779   -4.0115 H   0  0  0  0  0  0  0  0  0  0  0  0
    2.6387    0.1101   -5.6709 H   0  0  0  0  0  0  0  0  0  0  0  0
    2.8277    2.7439   -5.1457 H   0  0  0  0  0  0  0  0  0  0  0  0
    1.4099    2.1780   -6.0570 H   0  0  0  0  0  0  0  0  0  0  0  0
    0.4052    3.2446   -4.2636 H   0  0  0  0  0  0  0  0  0  0  0  0
    1.6068    2.8134   -3.1519 H   0  0  0  0  0  0  0  0  0  0  0  0
  1  2  1  0  0  0  0
  2  3  4  0  0  0  0
  3  4  2  0  0  0  0
  3  5  1  0  0  0  0
  5  6  1  0  0  0  0
  6  7  1  0  0  0  0
  7  8  1  0  0  0  0
  5  9  1  0  0  0  0
  8  9  1  0  0  0  0
  1 10  1  0  0  0  0
  1 11  1  0  0  0  0
  1 12  1  0  0  0  0
  5 13  1  0  0  0  0
  6 14  1  0  0  0  0
  6 15  1  0  0  0  0
  7 16  1  0  0  0  0
  7 17  1  0  0  0  0
  8 18  1  0  0  0  0
  8 19  1  0  0  0  0
  9 20  1  0  0  0  0
  9 21  1  0  0  0  0
M  CHG  1   1   1
M  END
