 xtb: 6.7.1 (edcfbbe)
          12202406593D

 20 20  0     0  0            999 V2000
    1.2768   -0.1750    0.8471 O   0  0  0  0  0  0  0  0  0  0  0  0
    0.6531   -1.4324    0.7940 C   0  0  0  0  0  0  0  0  0  0  0  0
    1.1170   -2.1196   -0.5008 C   0  0  0  0  0  0  0  0  0  0  0  0
    2.5613   -2.2668   -0.4895 N   0  0  0  0  0  0  0  0  0  0  0  0
    3.3186   -1.2101   -0.7821 C   0  0  0  0  0  0  0  0  0  0  0  0
    4.6995   -1.2923   -0.7014 C   0  0  0  0  0  0  0  0  0  0  0  0
    5.2975   -2.4766   -0.3279 C   0  0  0  0  0  0  0  0  0  0  0  0
    4.4897   -3.5874   -0.0269 C   0  0  0  0  0  0  0  0  0  0  0  0
    3.1075   -3.4302   -0.1143 C   0  0  0  0  0  0  0  0  0  0  0  0
    5.0775   -4.7204    0.3246 O   0  0  0  0  0  0  0  0  0  0  0  0
    0.9075    0.3490    1.5657 H   0  0  0  0  0  0  0  0  0  0  0  0
    0.9304   -2.0445    1.6645 H   0  0  0  0  0  0  0  0  0  0  0  0
   -0.4388   -1.3439    0.7583 H   0  0  0  0  0  0  0  0  0  0  0  0
    0.6390   -3.0943   -0.5954 H   0  0  0  0  0  0  0  0  0  0  0  0
    0.8338   -1.4897   -1.3461 H   0  0  0  0  0  0  0  0  0  0  0  0
    2.8135   -0.2977   -1.0564 H   0  0  0  0  0  0  0  0  0  0  0  0
    5.2961   -0.4258   -0.9359 H   0  0  0  0  0  0  0  0  0  0  0  0
    6.3685   -2.5824   -0.2588 H   0  0  0  0  0  0  0  0  0  0  0  0
    2.4355   -4.2465    0.1129 H   0  0  0  0  0  0  0  0  0  0  0  0
    4.4650   -5.4459    0.5102 H   0  0  0  0  0  0  0  0  0  0  0  0
  1  2  1  0  0  0  0
  2  3  1  0  0  0  0
  3  4  1  0  0  0  0
  4  5  4  0  0  0  0
  5  6  4  0  0  0  0
  6  7  4  0  0  0  0
  7  8  4  0  0  0  0
  4  9  4  0  0  0  0
  8  9  4  0  0  0  0
  8 10  1  0  0  0  0
  1 11  1  0  0  0  0
  2 12  1  0  0  0  0
  2 13  1  0  0  0  0
  3 14  1  0  0  0  0
  3 15  1  0  0  0  0
  5 16  1  0  0  0  0
  6 17  1  0  0  0  0
  7 18  1  0  0  0  0
  9 19  1  0  0  0  0
 10 20  1  0  0  0  0
M  CHG  1   1   1
M  END
