108

C          1.33423        0.59291       -0.33498
C          1.34755        1.29642       -1.68550
C          1.72922        0.37849       -2.85300
C          0.77815       -0.79871       -3.08408
C         -0.58222       -0.39858       -3.66427
C         -0.61059       -0.21273       -5.18526
C         -0.21027       -1.43990       -6.01965
C         -0.93670       -2.74715       -5.67866
C         -2.42331       -2.73848       -6.05883
C         -2.72770       -3.62945       -7.26824
C         -2.80086       -5.11353       -6.88499
C         -4.13661       -5.48486       -6.26031
O         -5.14642       -4.78501       -6.36007
N         -4.25826       -6.69216       -5.63926
C         -3.28408       -7.37550       -4.79839
C         -3.74708       -7.31032       -3.33336
C         -3.68280       -8.65145       -2.59906
C         -2.27179       -9.15937       -2.29188
C         -1.45563       -8.28066       -1.33279
C         -2.04373       -8.31067        0.08811
O         -1.73205       -9.09692        0.96909
O         -2.95857       -7.30244        0.21911
C         -3.48053       -7.09141        1.53988
C         -4.64059       -8.02605        1.82043
N         -0.06131       -8.72245       -1.33675
C          1.05530       -8.03849       -0.96762
O          2.15093       -8.58122       -1.10412
C          0.93719       -6.63740       -0.40415
C          1.12876       -5.53580       -1.44717
C         -0.13214       -4.77358       -1.88303
C         -1.01540       -4.29363       -0.72285
C         -1.99529       -3.16937       -1.08008
C         -2.93191       -3.47811       -2.25110
C         -4.39927       -3.67690       -1.86710
C         -5.13183       -2.42145       -1.37764
C         -5.03685       -1.18075       -2.27461
C         -5.47256       -1.38161       -3.72409
N         -6.87981       -1.76313       -3.85354
C         -7.34785       -2.93993       -4.41974
C         -8.71118       -2.86906       -4.40753
N         -9.04283       -1.64915       -3.84072
C         -7.92120       -0.98253       -3.53034
C        -10.39053       -1.13269       -3.64880
H          0.51659       -0.13069       -0.26540
H          1.19333        1.32297        0.46853
H          2.27791        0.06853       -0.15399
H          0.37230        1.76188       -1.86159
H          2.07763        2.11350       -1.64041
H          1.80436        0.97755       -3.76787
H          2.73298       -0.02180       -2.66269
H          1.27153       -1.52609       -3.73653
H          0.61908       -1.32702       -2.13884
H         -1.31372       -1.16415       -3.39890
H         -0.94497        0.51962       -3.18991
H         -1.62411        0.09573       -5.46897
H          0.04466        0.62227       -5.46026
H         -0.37006       -1.20788       -7.08019
H          0.86783       -1.60579       -5.91191
H         -0.41759       -3.56675       -6.18996
H         -0.83562       -2.96368       -4.61051
H         -3.01185       -3.09121       -5.20705
H         -2.76685       -1.72118       -6.27209
H         -3.67518       -3.30771       -7.71696
H         -1.95730       -3.48261       -8.03459
H         -2.71206       -5.71371       -7.79901
H         -1.96734       -5.37722       -6.23249
H         -5.22581       -6.92038       -5.44636
H         -3.22984       -8.40674       -5.15899
H         -2.29432       -6.92297       -4.89164
H         -3.17021       -6.55062       -2.79995
H         -4.78909       -6.96773       -3.28324
H         -4.25233       -8.56943       -1.66636
H         -4.20518       -9.40758       -3.19863
H         -2.36014      -10.16761       -1.86519
H         -1.72496       -9.27709       -3.23602
H         -1.44306       -7.24667       -1.67307
H         -2.69017       -7.18673        2.29291
H         -3.83246       -6.05451        1.57395
H         -4.30993       -9.06885        1.83746
H         -5.09817       -7.79193        2.78610
H         -5.40199       -7.94378        1.03821
H          0.13574       -9.69710       -1.54044
H          0.01970       -6.53422        0.17542
H          1.74501       -6.55441        0.33605
H          1.82097       -4.79473       -1.02641
H          1.62113       -5.93473       -2.34300
H          0.19071       -3.90938       -2.47606
H         -0.71040       -5.40715       -2.56255
H         -1.59219       -5.13374       -0.32709
H         -0.37621       -3.93339        0.09267
H         -2.56574       -2.91191       -0.18082
H         -1.40862       -2.27778       -1.32499
H         -2.86536       -2.66070       -2.97143
H         -2.60179       -4.36565       -2.79519
H         -4.92995       -4.07203       -2.74154
H         -4.47052       -4.45374       -1.09568
H         -6.18934       -2.67675       -1.23537
H         -4.75512       -2.15052       -0.38396
H         -5.64885       -0.38996       -1.82347
H         -4.00710       -0.80422       -2.26606
H         -5.34119       -0.44521       -4.27938
H         -4.85593       -2.13444       -4.22129
H         -6.64533       -3.67668       -4.76773
H         -9.49350       -3.52960       -4.73966
H         -7.86675        0.01080       -3.10012
H        -10.41066       -0.48912       -2.76520
H        -10.67501       -0.55584       -4.53259
H        -11.08907       -1.96132       -3.50532
