 xtb: 6.7.1 (edcfbbe)
          12202407003D

 31 31  0     0  0            999 V2000
    1.1278    0.2129    0.1341 C   0  0  0  0  0  0  0  0  0  0  0  0
    0.7427   -0.8250   -0.9167 C   0  0  0  0  0  0  0  0  0  0  0  0
    1.0106   -2.2665   -0.4431 C   0  0  0  0  0  0  0  0  0  0  0  0
    0.5167   -2.6672    0.9501 C   0  0  0  0  0  0  0  0  0  0  0  0
   -0.9865   -2.9422    1.0657 C   0  0  0  0  0  0  0  0  0  0  0  0
   -1.3931   -4.0217    0.1949 N   0  0  0  0  0  0  0  0  0  0  0  0
   -2.1455   -3.9180   -0.8948 C   0  0  0  0  0  0  0  0  0  0  0  0
   -2.2669   -5.1146   -1.4677 N   0  0  0  0  0  0  0  0  0  0  0  0
   -1.5655   -6.0085   -0.7195 C   0  0  0  0  0  0  0  0  0  0  0  0
   -1.0168   -5.3232    0.3223 C   0  0  0  0  0  0  0  0  0  0  0  0
   -3.0074   -5.4053   -2.6670 C   0  0  0  0  0  0  0  0  0  0  0  0
   -0.6852   -0.5826   -1.4056 C   0  0  0  0  0  0  0  0  0  0  0  0
    0.4216    0.2240    0.9614 H   0  0  0  0  0  0  0  0  0  0  0  0
    1.1296    1.2039   -0.3113 H   0  0  0  0  0  0  0  0  0  0  0  0
    2.1235    0.0166    0.5231 H   0  0  0  0  0  0  0  0  0  0  0  0
    1.3988   -0.6805   -1.7821 H   0  0  0  0  0  0  0  0  0  0  0  0
    0.6201   -2.9628   -1.1912 H   0  0  0  0  0  0  0  0  0  0  0  0
    2.0944   -2.3963   -0.4308 H   0  0  0  0  0  0  0  0  0  0  0  0
    1.0547   -3.5669    1.2557 H   0  0  0  0  0  0  0  0  0  0  0  0
    0.7660   -1.8849    1.6646 H   0  0  0  0  0  0  0  0  0  0  0  0
   -1.2218   -3.2243    2.0954 H   0  0  0  0  0  0  0  0  0  0  0  0
   -1.5647   -2.0575    0.8036 H   0  0  0  0  0  0  0  0  0  0  0  0
   -2.5935   -3.0121   -1.2550 H   0  0  0  0  0  0  0  0  0  0  0  0
   -1.5032   -7.0481   -0.9688 H   0  0  0  0  0  0  0  0  0  0  0  0
   -0.4049   -5.6716    1.1288 H   0  0  0  0  0  0  0  0  0  0  0  0
   -4.0445   -5.0870   -2.5594 H   0  0  0  0  0  0  0  0  0  0  0  0
   -2.5703   -4.8850   -3.5203 H   0  0  0  0  0  0  0  0  0  0  0  0
   -2.9836   -6.4756   -2.8574 H   0  0  0  0  0  0  0  0  0  0  0  0
   -0.7323    0.3763   -1.9151 H   0  0  0  0  0  0  0  0  0  0  0  0
   -0.9883   -1.3503   -2.1158 H   0  0  0  0  0  0  0  0  0  0  0  0
   -1.3965   -0.5438   -0.5838 H   0  0  0  0  0  0  0  0  0  0  0  0
  1  2  1  0  0  0  0
  2  3  1  0  0  0  0
  3  4  1  0  0  0  0
  4  5  1  0  0  0  0
  5  6  1  0  0  0  0
  6  7  4  0  0  0  0
  7  8  4  0  0  0  0
  8  9  4  0  0  0  0
  6 10  4  0  0  0  0
  9 10  2  0  0  0  0
  8 11  1  0  0  0  0
  2 12  1  0  0  0  0
  1 13  1  0  0  0  0
  1 14  1  0  0  0  0
  1 15  1  0  0  0  0
  2 16  1  0  0  0  0
  3 17  1  0  0  0  0
  3 18  1  0  0  0  0
  4 19  1  0  0  0  0
  4 20  1  0  0  0  0
  5 21  1  0  0  0  0
  5 22  1  0  0  0  0
  7 23  1  0  0  0  0
  9 24  1  0  0  0  0
 10 25  1  0  0  0  0
 11 26  1  0  0  0  0
 11 27  1  0  0  0  0
 11 28  1  0  0  0  0
 12 29  1  0  0  0  0
 12 30  1  0  0  0  0
 12 31  1  0  0  0  0
M  CHG  1   1   1
M  END
