 xtb: 6.7.1 (edcfbbe)
          12202407003D

 29 29  0     0  0            999 V2000
    1.0186    0.0470    0.1264 O   0  0  0  0  0  0  0  0  0  0  0  0
    0.2004   -1.1036    0.1284 C   0  0  0  0  0  0  0  0  0  0  0  0
    1.0180   -2.3031   -0.3843 C   0  0  0  0  0  0  0  0  0  0  0  0
    2.5219   -2.2402   -0.1083 C   0  0  0  0  0  0  0  0  0  0  0  0
    3.0500   -2.5187    1.2687 N   0  0  0  0  0  0  0  0  0  0  0  0
    2.6458   -1.4491    2.2224 C   0  0  0  0  0  0  0  0  0  0  0  0
    3.0330   -1.7786    3.6681 C   0  0  0  0  0  0  0  0  0  0  0  0
    2.4863   -3.0113    4.0618 O   0  0  0  0  0  0  0  0  0  0  0  0
    2.9406   -4.0579    3.2462 C   0  0  0  0  0  0  0  0  0  0  0  0
    2.5418   -3.8180    1.7839 C   0  0  0  0  0  0  0  0  0  0  0  0
    4.5218   -2.5508    1.1393 C   0  0  0  0  0  0  0  0  0  0  0  0
    0.4693    0.8357    0.0888 H   0  0  0  0  0  0  0  0  0  0  0  0
   -0.1904   -1.2915    1.1408 H   0  0  0  0  0  0  0  0  0  0  0  0
   -0.6654   -0.9750   -0.5286 H   0  0  0  0  0  0  0  0  0  0  0  0
    0.5610   -3.2297   -0.0412 H   0  0  0  0  0  0  0  0  0  0  0  0
    0.9505   -2.3024   -1.4741 H   0  0  0  0  0  0  0  0  0  0  0  0
    3.0038   -2.9604   -0.7716 H   0  0  0  0  0  0  0  0  0  0  0  0
    2.8505   -1.2342   -0.3767 H   0  0  0  0  0  0  0  0  0  0  0  0
    1.5629   -1.3602    2.1823 H   0  0  0  0  0  0  0  0  0  0  0  0
    3.0845   -0.5030    1.9066 H   0  0  0  0  0  0  0  0  0  0  0  0
    2.5986   -1.0275    4.3302 H   0  0  0  0  0  0  0  0  0  0  0  0
    4.1221   -1.7722    3.8126 H   0  0  0  0  0  0  0  0  0  0  0  0
    4.0256   -4.1950    3.3517 H   0  0  0  0  0  0  0  0  0  0  0  0
    2.4457   -4.9621    3.6055 H   0  0  0  0  0  0  0  0  0  0  0  0
    2.9074   -4.6263    1.1497 H   0  0  0  0  0  0  0  0  0  0  0  0
    1.4523   -3.7922    1.7441 H   0  0  0  0  0  0  0  0  0  0  0  0
    4.8230   -3.3652    0.4827 H   0  0  0  0  0  0  0  0  0  0  0  0
    4.8739   -1.6111    0.7176 H   0  0  0  0  0  0  0  0  0  0  0  0
    4.9972   -2.6946    2.1051 H   0  0  0  0  0  0  0  0  0  0  0  0
  1  2  1  0  0  0  0
  2  3  1  0  0  0  0
  3  4  1  0  0  0  0
  4  5  1  0  0  0  0
  5  6  1  0  0  0  0
  6  7  1  0  0  0  0
  7  8  1  0  0  0  0
  8  9  1  0  0  0  0
  5 10  1  0  0  0  0
  9 10  1  0  0  0  0
  5 11  1  0  0  0  0
  1 12  1  0  0  0  0
  2 13  1  0  0  0  0
  2 14  1  0  0  0  0
  3 15  1  0  0  0  0
  3 16  1  0  0  0  0
  4 17  1  0  0  0  0
  4 18  1  0  0  0  0
  6 19  1  0  0  0  0
  6 20  1  0  0  0  0
  7 21  1  0  0  0  0
  7 22  1  0  0  0  0
  9 23  1  0  0  0  0
  9 24  1  0  0  0  0
 10 25  1  0  0  0  0
 10 26  1  0  0  0  0
 11 27  1  0  0  0  0
 11 28  1  0  0  0  0
 11 29  1  0  0  0  0
M  CHG  1   1   1
M  END
