 xtb: 6.7.1 (edcfbbe)
          12202407003D

101100  0     0  0            999 V2000
    2.4605   -0.3389   -2.3180 C   0  0  0  0  0  0  0  0  0  0  0  0
    1.8758    0.8860   -3.0115 C   0  0  0  0  0  0  0  0  0  0  0  0
    1.7909    0.7413   -4.5320 C   0  0  0  0  0  0  0  0  0  0  0  0
    0.8396   -0.3512   -5.0253 C   0  0  0  0  0  0  0  0  0  0  0  0
   -0.6157   -0.0880   -4.6378 C   0  0  0  0  0  0  0  0  0  0  0  0
   -1.6179   -0.9295   -5.4307 C   0  0  0  0  0  0  0  0  0  0  0  0
   -1.4569   -2.4488   -5.3019 C   0  0  0  0  0  0  0  0  0  0  0  0
   -1.7559   -3.1620   -3.9749 C   0  0  0  0  0  0  0  0  0  0  0  0
   -3.1698   -3.1799   -3.4674 N   0  0  0  0  0  0  0  0  0  0  0  0
   -4.1659   -3.2236   -4.5879 C   0  0  0  0  0  0  0  0  0  0  0  0
   -4.1976   -4.4706   -5.4689 C   0  0  0  0  0  0  0  0  0  0  0  0
   -5.1327   -4.2403   -6.6652 C   0  0  0  0  0  0  0  0  0  0  0  0
   -4.5455   -3.3857   -7.7902 C   0  0  0  0  0  0  0  0  0  0  0  0
   -3.3984   -4.0393   -8.5658 C   0  0  0  0  0  0  0  0  0  0  0  0
   -3.7480   -5.3611   -9.2539 C   0  0  0  0  0  0  0  0  0  0  0  0
   -4.9240   -5.2942  -10.2290 C   0  0  0  0  0  0  0  0  0  0  0  0
   -4.6925   -4.3296  -11.3858 C   0  0  0  0  0  0  0  0  0  0  0  0
   -3.4024   -4.3602   -2.5637 C   0  0  0  0  0  0  0  0  0  0  0  0
   -2.7222   -5.6979   -2.8736 C   0  0  0  0  0  0  0  0  0  0  0  0
   -3.3822   -6.8091   -2.0440 C   0  0  0  0  0  0  0  0  0  0  0  0
   -4.7323   -7.2610   -2.5985 C   0  0  0  0  0  0  0  0  0  0  0  0
   -5.3180   -8.4477   -1.8306 C   0  0  0  0  0  0  0  0  0  0  0  0
   -5.6428   -8.1726   -0.3605 C   0  0  0  0  0  0  0  0  0  0  0  0
   -6.6198   -7.0213   -0.1141 C   0  0  0  0  0  0  0  0  0  0  0  0
   -7.9834   -7.2397   -0.7590 C   0  0  0  0  0  0  0  0  0  0  0  0
   -3.4302   -1.8808   -2.7202 C   0  0  0  0  0  0  0  0  0  0  0  0
   -3.4092   -1.8484   -1.1870 C   0  0  0  0  0  0  0  0  0  0  0  0
   -2.0733   -2.0570   -0.4619 C   0  0  0  0  0  0  0  0  0  0  0  0
   -1.0135   -0.9818   -0.7102 C   0  0  0  0  0  0  0  0  0  0  0  0
   -1.4435    0.4532   -0.4029 C   0  0  0  0  0  0  0  0  0  0  0  0
   -1.8981    0.6929    1.0381 C   0  0  0  0  0  0  0  0  0  0  0  0
   -0.8486    0.3696    2.1032 C   0  0  0  0  0  0  0  0  0  0  0  0
    0.4235    1.1976    1.9659 C   0  0  0  0  0  0  0  0  0  0  0  0
    1.8269   -1.2137   -2.4471 H   0  0  0  0  0  0  0  0  0  0  0  0
    2.5656   -0.1536   -1.2517 H   0  0  0  0  0  0  0  0  0  0  0  0
    3.4440   -0.5679   -2.7209 H   0  0  0  0  0  0  0  0  0  0  0  0
    0.8872    1.1063   -2.6039 H   0  0  0  0  0  0  0  0  0  0  0  0
    2.5128    1.7447   -2.7917 H   0  0  0  0  0  0  0  0  0  0  0  0
    1.4746    1.6971   -4.9557 H   0  0  0  0  0  0  0  0  0  0  0  0
    2.7895    0.5262   -4.9174 H   0  0  0  0  0  0  0  0  0  0  0  0
    0.9112   -0.3941   -6.1145 H   0  0  0  0  0  0  0  0  0  0  0  0
    1.1687   -1.3153   -4.6343 H   0  0  0  0  0  0  0  0  0  0  0  0
   -0.7418   -0.2489   -3.5670 H   0  0  0  0  0  0  0  0  0  0  0  0
   -0.8416    0.9627   -4.8313 H   0  0  0  0  0  0  0  0  0  0  0  0
   -2.6332   -0.6131   -5.1786 H   0  0  0  0  0  0  0  0  0  0  0  0
   -1.4769   -0.6979   -6.4891 H   0  0  0  0  0  0  0  0  0  0  0  0
   -2.0323   -2.9141   -6.1006 H   0  0  0  0  0  0  0  0  0  0  0  0
   -0.4102   -2.6805   -5.5095 H   0  0  0  0  0  0  0  0  0  0  0  0
   -1.4542   -4.1959   -4.1308 H   0  0  0  0  0  0  0  0  0  0  0  0
   -1.1357   -2.7525   -3.1773 H   0  0  0  0  0  0  0  0  0  0  0  0
   -5.1567   -3.1220   -4.1374 H   0  0  0  0  0  0  0  0  0  0  0  0
   -3.9940   -2.3472   -5.2116 H   0  0  0  0  0  0  0  0  0  0  0  0
   -3.2078   -4.7326   -5.8379 H   0  0  0  0  0  0  0  0  0  0  0  0
   -4.5886   -5.3134   -4.9003 H   0  0  0  0  0  0  0  0  0  0  0  0
   -5.4068   -5.2112   -7.0756 H   0  0  0  0  0  0  0  0  0  0  0  0
   -6.0527   -3.7718   -6.3085 H   0  0  0  0  0  0  0  0  0  0  0  0
   -5.3503   -3.1590   -8.4893 H   0  0  0  0  0  0  0  0  0  0  0  0
   -4.1973   -2.4276   -7.3943 H   0  0  0  0  0  0  0  0  0  0  0  0
   -3.0584   -3.3285   -9.3198 H   0  0  0  0  0  0  0  0  0  0  0  0
   -2.5491   -4.2225   -7.9015 H   0  0  0  0  0  0  0  0  0  0  0  0
   -2.8630   -5.6923   -9.8019 H   0  0  0  0  0  0  0  0  0  0  0  0
   -3.9597   -6.1225   -8.4994 H   0  0  0  0  0  0  0  0  0  0  0  0
   -5.0791   -6.2967  -10.6335 H   0  0  0  0  0  0  0  0  0  0  0  0
   -5.8369   -5.0166   -9.6984 H   0  0  0  0  0  0  0  0  0  0  0  0
   -3.7649   -4.5694  -11.9011 H   0  0  0  0  0  0  0  0  0  0  0  0
   -5.5079   -4.4017  -12.1011 H   0  0  0  0  0  0  0  0  0  0  0  0
   -4.6392   -3.2999  -11.0399 H   0  0  0  0  0  0  0  0  0  0  0  0
   -3.0683   -4.0923   -1.5667 H   0  0  0  0  0  0  0  0  0  0  0  0
   -4.4821   -4.5086   -2.5262 H   0  0  0  0  0  0  0  0  0  0  0  0
   -2.7814   -5.9753   -3.9237 H   0  0  0  0  0  0  0  0  0  0  0  0
   -1.6688   -5.6490   -2.5902 H   0  0  0  0  0  0  0  0  0  0  0  0
   -2.7122   -7.6696   -2.0351 H   0  0  0  0  0  0  0  0  0  0  0  0
   -3.4950   -6.4706   -1.0136 H   0  0  0  0  0  0  0  0  0  0  0  0
   -5.4516   -6.4402   -2.5829 H   0  0  0  0  0  0  0  0  0  0  0  0
   -4.6002   -7.5661   -3.6401 H   0  0  0  0  0  0  0  0  0  0  0  0
   -6.2256   -8.7721   -2.3412 H   0  0  0  0  0  0  0  0  0  0  0  0
   -4.6088   -9.2769   -1.8736 H   0  0  0  0  0  0  0  0  0  0  0  0
   -6.0731   -9.0838    0.0588 H   0  0  0  0  0  0  0  0  0  0  0  0
   -4.7190   -7.9740    0.1869 H   0  0  0  0  0  0  0  0  0  0  0  0
   -6.7547   -6.9214    0.9650 H   0  0  0  0  0  0  0  0  0  0  0  0
   -6.1913   -6.0809   -0.4708 H   0  0  0  0  0  0  0  0  0  0  0  0
   -8.4051   -8.1880   -0.4361 H   0  0  0  0  0  0  0  0  0  0  0  0
   -8.6692   -6.4467   -0.4699 H   0  0  0  0  0  0  0  0  0  0  0  0
   -7.9130   -7.2478   -1.8440 H   0  0  0  0  0  0  0  0  0  0  0  0
   -2.7087   -1.1546   -3.0860 H   0  0  0  0  0  0  0  0  0  0  0  0
   -4.4229   -1.5329   -3.0095 H   0  0  0  0  0  0  0  0  0  0  0  0
   -3.7600   -0.8455   -0.9345 H   0  0  0  0  0  0  0  0  0  0  0  0
   -4.1553   -2.5329   -0.7798 H   0  0  0  0  0  0  0  0  0  0  0  0
   -2.2961   -2.0788    0.6057 H   0  0  0  0  0  0  0  0  0  0  0  0
   -1.6287   -3.0250   -0.7078 H   0  0  0  0  0  0  0  0  0  0  0  0
   -0.1458   -1.2277   -0.0973 H   0  0  0  0  0  0  0  0  0  0  0  0
   -0.6784   -1.0252   -1.7488 H   0  0  0  0  0  0  0  0  0  0  0  0
   -0.5967    1.1070   -0.6156 H   0  0  0  0  0  0  0  0  0  0  0  0
   -2.2498    0.7542   -1.0774 H   0  0  0  0  0  0  0  0  0  0  0  0
   -2.1702    1.7466    1.1298 H   0  0  0  0  0  0  0  0  0  0  0  0
   -2.7986    0.1094    1.2437 H   0  0  0  0  0  0  0  0  0  0  0  0
   -1.2930    0.5683    3.0807 H   0  0  0  0  0  0  0  0  0  0  0  0
   -0.5973   -0.6927    2.0744 H   0  0  0  0  0  0  0  0  0  0  0  0
    0.1859    2.2585    1.9416 H   0  0  0  0  0  0  0  0  0  0  0  0
    1.0812    1.0153    2.8120 H   0  0  0  0  0  0  0  0  0  0  0  0
    0.9667    0.9449    1.0585 H   0  0  0  0  0  0  0  0  0  0  0  0
  1  2  1  0  0  0  0
  2  3  1  0  0  0  0
  3  4  1  0  0  0  0
  4  5  1  0  0  0  0
  5  6  1  0  0  0  0
  6  7  1  0  0  0  0
  7  8  1  0  0  0  0
  8  9  1  0  0  0  0
  9 10  1  0  0  0  0
 10 11  1  0  0  0  0
 11 12  1  0  0  0  0
 12 13  1  0  0  0  0
 13 14  1  0  0  0  0
 14 15  1  0  0  0  0
 15 16  1  0  0  0  0
 16 17  1  0  0  0  0
  9 18  1  0  0  0  0
 18 19  1  0  0  0  0
 19 20  1  0  0  0  0
 20 21  1  0  0  0  0
 21 22  1  0  0  0  0
 22 23  1  0  0  0  0
 23 24  1  0  0  0  0
 24 25  1  0  0  0  0
  9 26  1  0  0  0  0
 26 27  1  0  0  0  0
 27 28  1  0  0  0  0
 28 29  1  0  0  0  0
 29 30  1  0  0  0  0
 30 31  1  0  0  0  0
 31 32  1  0  0  0  0
 32 33  1  0  0  0  0
  1 34  1  0  0  0  0
  1 35  1  0  0  0  0
  1 36  1  0  0  0  0
  2 37  1  0  0  0  0
  2 38  1  0  0  0  0
  3 39  1  0  0  0  0
  3 40  1  0  0  0  0
  4 41  1  0  0  0  0
  4 42  1  0  0  0  0
  5 43  1  0  0  0  0
  5 44  1  0  0  0  0
  6 45  1  0  0  0  0
  6 46  1  0  0  0  0
  7 47  1  0  0  0  0
  7 48  1  0  0  0  0
  8 49  1  0  0  0  0
  8 50  1  0  0  0  0
 10 51  1  0  0  0  0
 10 52  1  0  0  0  0
 11 53  1  0  0  0  0
 11 54  1  0  0  0  0
 12 55  1  0  0  0  0
 12 56  1  0  0  0  0
 13 57  1  0  0  0  0
 13 58  1  0  0  0  0
 14 59  1  0  0  0  0
 14 60  1  0  0  0  0
 15 61  1  0  0  0  0
 15 62  1  0  0  0  0
 16 63  1  0  0  0  0
 16 64  1  0  0  0  0
 17 65  1  0  0  0  0
 17 66  1  0  0  0  0
 17 67  1  0  0  0  0
 18 68  1  0  0  0  0
 18 69  1  0  0  0  0
 19 70  1  0  0  0  0
 19 71  1  0  0  0  0
 20 72  1  0  0  0  0
 20 73  1  0  0  0  0
 21 74  1  0  0  0  0
 21 75  1  0  0  0  0
 22 76  1  0  0  0  0
 22 77  1  0  0  0  0
 23 78  1  0  0  0  0
 23 79  1  0  0  0  0
 24 80  1  0  0  0  0
 24 81  1  0  0  0  0
 25 82  1  0  0  0  0
 25 83  1  0  0  0  0
 25 84  1  0  0  0  0
 26 85  1  0  0  0  0
 26 86  1  0  0  0  0
 27 87  1  0  0  0  0
 27 88  1  0  0  0  0
 28 89  1  0  0  0  0
 28 90  1  0  0  0  0
 29 91  1  0  0  0  0
 29 92  1  0  0  0  0
 30 93  1  0  0  0  0
 30 94  1  0  0  0  0
 31 95  1  0  0  0  0
 31 96  1  0  0  0  0
 32 97  1  0  0  0  0
 32 98  1  0  0  0  0
 33 99  1  0  0  0  0
 33100  1  0  0  0  0
 33101  1  0  0  0  0
M  CHG  1   1   1
M  END
