 xtb: 6.7.1 (edcfbbe)
          12202407003D

 20 20  0     0  0            999 V2000
    1.3813   -1.7259    1.2003 N   0  0  0  0  0  0  0  0  0  0  0  0
    2.1814   -1.0470    0.7496 C   0  0  0  0  0  0  0  0  0  0  0  0
    3.2716   -0.3116    0.1541 C   0  0  0  0  0  0  0  0  0  0  0  0
    4.5704   -1.1319    0.2893 C   0  0  0  0  0  0  0  0  0  0  0  0
    4.3559   -2.4892   -0.1599 N   0  0  0  0  0  0  0  0  0  0  0  0
    4.4568   -2.9392   -1.4423 C   0  0  0  0  0  0  0  0  0  0  0  0
    4.0508   -4.2385   -1.4470 C   0  0  0  0  0  0  0  0  0  0  0  0
    3.7026   -4.5596   -0.1697 N   0  0  0  0  0  0  0  0  0  0  0  0
    3.8923   -3.4891    0.5907 C   0  0  0  0  0  0  0  0  0  0  0  0
    3.1905   -5.8325    0.2598 C   0  0  0  0  0  0  0  0  0  0  0  0
    3.0333   -0.1227   -0.8961 H   0  0  0  0  0  0  0  0  0  0  0  0
    3.3864    0.6487    0.6604 H   0  0  0  0  0  0  0  0  0  0  0  0
    5.3614   -0.6777   -0.3104 H   0  0  0  0  0  0  0  0  0  0  0  0
    4.8860   -1.1583    1.3350 H   0  0  0  0  0  0  0  0  0  0  0  0
    4.8098   -2.3251   -2.2456 H   0  0  0  0  0  0  0  0  0  0  0  0
    3.9889   -4.9380   -2.2557 H   0  0  0  0  0  0  0  0  0  0  0  0
    3.6973   -3.4341    1.6446 H   0  0  0  0  0  0  0  0  0  0  0  0
    3.8281   -6.6357   -0.1091 H   0  0  0  0  0  0  0  0  0  0  0  0
    3.1540   -5.8709    1.3460 H   0  0  0  0  0  0  0  0  0  0  0  0
    2.1827   -5.9806   -0.1318 H   0  0  0  0  0  0  0  0  0  0  0  0
  1  2  3  0  0  0  0
  2  3  1  0  0  0  0
  3  4  1  0  0  0  0
  4  5  1  0  0  0  0
  5  6  4  0  0  0  0
  6  7  2  0  0  0  0
  7  8  4  0  0  0  0
  5  9  4  0  0  0  0
  8  9  4  0  0  0  0
  8 10  1  0  0  0  0
  3 11  1  0  0  0  0
  3 12  1  0  0  0  0
  4 13  1  0  0  0  0
  4 14  1  0  0  0  0
  6 15  1  0  0  0  0
  7 16  1  0  0  0  0
  9 17  1  0  0  0  0
 10 18  1  0  0  0  0
 10 19  1  0  0  0  0
 10 20  1  0  0  0  0
M  CHG  1   1   1
M  END
