 xtb: 6.7.1 (edcfbbe)
          12202407003D

 66 66  0     0  0            999 V2000
    1.3321    0.8058   -0.8750 C   0  0  0  0  0  0  0  0  0  0  0  0
    0.3840    0.5987    0.2600 C   0  0  0  0  0  0  0  0  0  0  0  0
   -0.6041   -0.5182   -0.1195 C   0  0  0  0  0  0  0  0  0  0  0  0
   -1.7941   -0.6045    0.8354 C   0  0  0  0  0  0  0  0  0  0  0  0
   -2.7284    0.6073    0.8021 C   0  0  0  0  0  0  0  0  0  0  0  0
   -3.2732    0.9736   -0.5808 C   0  0  0  0  0  0  0  0  0  0  0  0
   -4.0306   -0.1485   -1.2952 C   0  0  0  0  0  0  0  0  0  0  0  0
   -5.2368   -0.6959   -0.5284 C   0  0  0  0  0  0  0  0  0  0  0  0
   -6.3035    0.3417   -0.1751 C   0  0  0  0  0  0  0  0  0  0  0  0
   -6.9353    1.0555   -1.3715 C   0  0  0  0  0  0  0  0  0  0  0  0
   -7.6431    0.1392   -2.3719 C   0  0  0  0  0  0  0  0  0  0  0  0
   -8.7651   -0.7169   -1.7806 C   0  0  0  0  0  0  0  0  0  0  0  0
   -9.8842    0.0670   -1.0933 C   0  0  0  0  0  0  0  0  0  0  0  0
  -10.6156    1.0707   -1.9870 C   0  0  0  0  0  0  0  0  0  0  0  0
  -11.3094    0.4638   -3.2071 C   0  0  0  0  0  0  0  0  0  0  0  0
  -12.4122   -0.5225   -2.8424 C   0  0  0  0  0  0  0  0  0  0  0  0
    1.2856    1.6966   -1.6868 O   0  0  0  0  0  0  0  0  0  0  0  0
    2.2416   -0.1912   -0.9625 O   0  0  0  0  0  0  0  0  0  0  0  0
    3.2132   -0.0919   -1.9873 C   0  0  0  0  0  0  0  0  0  0  0  0
    2.7325   -0.7331   -3.3038 C   0  0  0  0  0  0  0  0  0  0  0  0
    1.5696   -0.0341   -3.8222 N   0  0  0  0  0  0  0  0  0  0  0  0
    0.3443   -0.5318   -3.6163 C   0  0  0  0  0  0  0  0  0  0  0  0
   -0.7827    0.1748   -3.9801 C   0  0  0  0  0  0  0  0  0  0  0  0
   -0.6402    1.4264   -4.5645 C   0  0  0  0  0  0  0  0  0  0  0  0
    0.6405    1.9174   -4.7863 C   0  0  0  0  0  0  0  0  0  0  0  0
    1.7272    1.1644   -4.4004 C   0  0  0  0  0  0  0  0  0  0  0  0
    0.9307    0.3131    1.1577 H   0  0  0  0  0  0  0  0  0  0  0  0
   -0.1492    1.5324    0.4304 H   0  0  0  0  0  0  0  0  0  0  0  0
   -0.9720   -0.3391   -1.1318 H   0  0  0  0  0  0  0  0  0  0  0  0
   -0.0710   -1.4712   -0.1148 H   0  0  0  0  0  0  0  0  0  0  0  0
   -2.3623   -1.5007    0.5814 H   0  0  0  0  0  0  0  0  0  0  0  0
   -1.4253   -0.7311    1.8546 H   0  0  0  0  0  0  0  0  0  0  0  0
   -3.5641    0.4008    1.4711 H   0  0  0  0  0  0  0  0  0  0  0  0
   -2.2115    1.4802    1.2059 H   0  0  0  0  0  0  0  0  0  0  0  0
   -3.9403    1.8282   -0.4617 H   0  0  0  0  0  0  0  0  0  0  0  0
   -2.4503    1.3072   -1.2209 H   0  0  0  0  0  0  0  0  0  0  0  0
   -4.3686    0.2306   -2.2628 H   0  0  0  0  0  0  0  0  0  0  0  0
   -3.3501   -0.9817   -1.4941 H   0  0  0  0  0  0  0  0  0  0  0  0
   -5.6910   -1.4848   -1.1309 H   0  0  0  0  0  0  0  0  0  0  0  0
   -4.8930   -1.1615    0.3975 H   0  0  0  0  0  0  0  0  0  0  0  0
   -7.0871   -0.1622    0.3927 H   0  0  0  0  0  0  0  0  0  0  0  0
   -5.8705    1.0963    0.4850 H   0  0  0  0  0  0  0  0  0  0  0  0
   -7.6519    1.7843   -0.9891 H   0  0  0  0  0  0  0  0  0  0  0  0
   -6.1664    1.6193   -1.9061 H   0  0  0  0  0  0  0  0  0  0  0  0
   -8.0527    0.7613   -3.1705 H   0  0  0  0  0  0  0  0  0  0  0  0
   -6.9112   -0.5287   -2.8334 H   0  0  0  0  0  0  0  0  0  0  0  0
   -9.1916   -1.3189   -2.5855 H   0  0  0  0  0  0  0  0  0  0  0  0
   -8.3412   -1.4137   -1.0539 H   0  0  0  0  0  0  0  0  0  0  0  0
  -10.6074   -0.6489   -0.6983 H   0  0  0  0  0  0  0  0  0  0  0  0
   -9.4735    0.6071   -0.2376 H   0  0  0  0  0  0  0  0  0  0  0  0
  -11.3684    1.5771   -1.3776 H   0  0  0  0  0  0  0  0  0  0  0  0
   -9.9103    1.8319   -2.3279 H   0  0  0  0  0  0  0  0  0  0  0  0
  -11.7463    1.2797   -3.7886 H   0  0  0  0  0  0  0  0  0  0  0  0
  -10.5746   -0.0301   -3.8458 H   0  0  0  0  0  0  0  0  0  0  0  0
  -13.1282   -0.0598   -2.1667 H   0  0  0  0  0  0  0  0  0  0  0  0
  -12.9432   -0.8418   -3.7362 H   0  0  0  0  0  0  0  0  0  0  0  0
  -12.0043   -1.4064   -2.3587 H   0  0  0  0  0  0  0  0  0  0  0  0
    3.4609    0.9638   -2.1480 H   0  0  0  0  0  0  0  0  0  0  0  0
    4.0907   -0.6327   -1.6287 H   0  0  0  0  0  0  0  0  0  0  0  0
    3.5457   -0.6874   -4.0307 H   0  0  0  0  0  0  0  0  0  0  0  0
    2.4716   -1.7771   -3.1201 H   0  0  0  0  0  0  0  0  0  0  0  0
    0.2759   -1.5018   -3.1453 H   0  0  0  0  0  0  0  0  0  0  0  0
   -1.7589   -0.2456   -3.7954 H   0  0  0  0  0  0  0  0  0  0  0  0
   -1.5072    2.0072   -4.8369 H   0  0  0  0  0  0  0  0  0  0  0  0
    0.7960    2.8835   -5.2382 H   0  0  0  0  0  0  0  0  0  0  0  0
    2.7379    1.5183   -4.5376 H   0  0  0  0  0  0  0  0  0  0  0  0
  1  2  1  0  0  0  0
  2  3  1  0  0  0  0
  3  4  1  0  0  0  0
  4  5  1  0  0  0  0
  5  6  1  0  0  0  0
  6  7  1  0  0  0  0
  7  8  1  0  0  0  0
  8  9  1  0  0  0  0
  9 10  1  0  0  0  0
 10 11  1  0  0  0  0
 11 12  1  0  0  0  0
 12 13  1  0  0  0  0
 13 14  1  0  0  0  0
 14 15  1  0  0  0  0
 15 16  1  0  0  0  0
  1 17  2  0  0  0  0
  1 18  1  0  0  0  0
 18 19  1  0  0  0  0
 19 20  1  0  0  0  0
 20 21  1  0  0  0  0
 21 22  4  0  0  0  0
 22 23  4  0  0  0  0
 23 24  4  0  0  0  0
 24 25  4  0  0  0  0
 21 26  4  0  0  0  0
 25 26  4  0  0  0  0
  2 27  1  0  0  0  0
  2 28  1  0  0  0  0
  3 29  1  0  0  0  0
  3 30  1  0  0  0  0
  4 31  1  0  0  0  0
  4 32  1  0  0  0  0
  5 33  1  0  0  0  0
  5 34  1  0  0  0  0
  6 35  1  0  0  0  0
  6 36  1  0  0  0  0
  7 37  1  0  0  0  0
  7 38  1  0  0  0  0
  8 39  1  0  0  0  0
  8 40  1  0  0  0  0
  9 41  1  0  0  0  0
  9 42  1  0  0  0  0
 10 43  1  0  0  0  0
 10 44  1  0  0  0  0
 11 45  1  0  0  0  0
 11 46  1  0  0  0  0
 12 47  1  0  0  0  0
 12 48  1  0  0  0  0
 13 49  1  0  0  0  0
 13 50  1  0  0  0  0
 14 51  1  0  0  0  0
 14 52  1  0  0  0  0
 15 53  1  0  0  0  0
 15 54  1  0  0  0  0
 16 55  1  0  0  0  0
 16 56  1  0  0  0  0
 16 57  1  0  0  0  0
 19 58  1  0  0  0  0
 19 59  1  0  0  0  0
 20 60  1  0  0  0  0
 20 61  1  0  0  0  0
 22 62  1  0  0  0  0
 23 63  1  0  0  0  0
 24 64  1  0  0  0  0
 25 65  1  0  0  0  0
 26 66  1  0  0  0  0
M  CHG  1   1   1
M  END
