62

C          1.21261        0.36515       -2.68239
C          0.33724       -0.79969       -3.11003
C          0.78180       -2.16902       -2.59521
C          0.80295       -2.52726       -1.09540
N         -0.53413       -2.50761       -0.26778
C         -1.75212       -3.01693       -1.14331
C         -1.50470       -4.32997       -1.91869
C         -2.30807       -5.57686       -1.49810
C         -3.81868       -5.39325       -1.62833
C         -1.86866       -6.76674       -2.36538
C         -0.36719       -3.51424        0.91888
C         -0.98395       -3.24670        2.29813
C         -2.47029       -2.90160        2.47217
C         -3.38005       -4.09919        2.21636
C         -2.70304       -2.39861        3.90662
C         -0.84047       -1.03581        0.11692
C         -0.20451       -0.35805        1.34274
C          1.26933       -0.55199        1.74726
C          2.24341        0.28836        0.92057
C          1.44020       -0.14612        3.22120
H          1.00475        0.66767       -1.65602
H          1.00977        1.23643       -3.31394
H          2.27627        0.12450       -2.77095
H         -0.71073       -0.59959       -2.87213
H          0.37975       -0.84445       -4.20680
H          0.21259       -2.91705       -3.15106
H          1.81411       -2.31477       -2.94639
H          1.18795       -3.55263       -1.02025
H          1.51628       -1.90528       -0.56443
H         -2.60885       -3.08045       -0.47093
H         -1.95567       -2.21424       -1.86009
H         -1.75232       -4.13053       -2.97123
H         -0.44912       -4.61044       -1.90699
H         -2.07623       -5.82499       -0.45757
H         -4.10431       -5.15530       -2.65808
H         -4.33923       -6.31351       -1.33950
H         -4.18812       -4.59434       -0.98094
H         -0.78676       -6.92518       -2.29775
H         -2.36068       -7.68999       -2.04253
H         -2.11780       -6.60206       -3.42006
H         -0.69953       -4.49046        0.56115
H          0.71251       -3.61847        1.07922
H         -0.79465       -4.15565        2.88951
H         -0.37201       -2.50250        2.81017
H         -2.76190       -2.09546        1.79750
H         -3.16852       -4.91780        2.91206
H         -4.43090       -3.81527        2.34334
H         -3.25899       -4.48069        1.20292
H         -2.08352       -1.52104        4.12199
H         -3.74831       -2.10910        4.05679
H         -2.45574       -3.17095        4.64372
H         -0.62295       -0.43259       -0.75939
H         -1.92859       -0.96739        0.23023
H         -0.36628        0.72195        1.20543
H         -0.84344       -0.58044        2.20257
H          1.55503       -1.60356        1.67128
H          1.95675        1.34506        0.91433
H          3.25751        0.21931        1.33029
H          2.30409       -0.05172       -0.11113
H          0.79179       -0.73930        3.87401
H          2.47213       -0.30512        3.55189
H          1.19413        0.91092        3.37126
