48

C          0.36696        0.20880        0.15832
C         -0.06165        0.99276       -1.07636
C          0.81512        0.88309       -2.32773
C          1.46687       -0.46064       -2.57268
O          0.99960       -1.55634       -2.31798
O          2.68896       -0.27332       -3.15887
C          2.82684        1.10174       -3.50075
C          2.00457        1.84820       -2.46033
C          2.78825        2.10501       -1.15901
C          4.03046        2.90455       -1.36953
C          4.20159        4.16380       -1.90609
N          5.56059        4.40692       -1.99662
C          6.22609        3.37877       -1.45239
N          5.32500        2.45789       -1.07231
C          5.71552        1.20539       -0.42384
C          6.19399        5.55942       -2.66416
C          6.99982        6.46634       -1.72822
C          8.24335        5.83707       -1.14374
C          8.46818        5.89567        0.23949
C          9.60924        5.31868        0.79921
C         10.53929        4.67785       -0.01516
C         10.34180        4.63384       -1.39291
C          9.20951        5.22457       -1.95777
H          0.30081       -0.87025       -0.00778
H         -0.30354        0.44219        0.99234
H          1.38148        0.44427        0.48058
H         -1.06677        0.63727       -1.34005
H         -0.18257        2.04961       -0.81032
H          0.16300        1.05672       -3.19680
H          2.43172        1.24886       -4.51319
H          3.88667        1.36747       -3.51354
H          1.67468        2.81354       -2.86413
H          2.16441        2.66153       -0.45007
H          3.05285        1.15922       -0.68314
H          3.51484        4.89961       -2.29090
H          7.29973        3.27513       -1.35726
H          6.73091        0.93989       -0.73188
H          5.68949        1.35123        0.65928
H          5.04648        0.39344       -0.71364
H          6.80849        5.16386       -3.48040
H          5.39787        6.15434       -3.12837
H          7.30834        7.36517       -2.27639
H          6.33880        6.80160       -0.91941
H          7.76814        6.40842        0.89737
H          9.78434        5.38616        1.87114
H         11.43369        4.23861        0.42202
H         11.08649        4.15880       -2.02874
H          9.10776        5.20644       -3.04081
