31

Cl        -2.20255       -0.16773        0.56991
C         -0.49794       -0.10461        0.36485
C          0.23170       -1.28313        0.23936
C          1.61710       -1.22575        0.06310
C          2.27863        0.01117        0.01450
C          1.53461        1.19196        0.13819
C          0.14747        1.13031        0.31573
C          3.75384        0.00948       -0.21221
O          4.30409       -1.01997       -0.60434
C          4.54646        1.29603       -0.04486
N          4.54912        2.11776       -1.27528
C          4.58179        1.61561       -2.57240
C          4.54122        2.68811       -3.41066
N          4.53107        3.81950       -2.61241
C          4.61748        3.46642       -1.31272
C          4.73867        4.38416       -0.14033
C          4.48388        5.19134       -3.11551
H         -0.26942       -2.24836        0.27271
H          2.17242       -2.15799       -0.04045
H          1.98997        2.17469        0.08243
H         -0.43077        2.04757        0.40827
H          4.15672        1.87267        0.79847
H          5.58612        1.04224        0.19110
H          4.61522        0.55100       -2.74074
H          4.52509        2.79286       -4.48233
H          3.74904        4.45599        0.31202
H          5.46498        3.94650        0.54595
H          5.08845        5.35506       -0.49030
H          3.72570        5.75108       -2.56132
H          5.46592        5.65166       -2.98025
H          4.22196        5.19501       -4.17712
