 xtb: 6.7.1 (edcfbbe)
          12202407003D

 24 24  0     0  0            999 V2000
    1.8780   -0.0545   -0.3094 C   0  0  0  0  0  0  0  0  0  0  0  0
    0.5879    0.1425   -1.0940 C   0  0  0  0  0  0  0  0  0  0  0  0
    0.3308   -0.9791   -2.1109 C   0  0  0  0  0  0  0  0  0  0  0  0
    0.1183   -2.2484   -1.4371 N   0  0  0  0  0  0  0  0  0  0  0  0
    1.1406   -3.0870   -1.2534 C   0  0  0  0  0  0  0  0  0  0  0  0
    0.9680   -4.2652   -0.5523 C   0  0  0  0  0  0  0  0  0  0  0  0
   -0.2783   -4.5729   -0.0346 C   0  0  0  0  0  0  0  0  0  0  0  0
   -1.3457   -3.6902   -0.2268 C   0  0  0  0  0  0  0  0  0  0  0  0
   -1.0913   -2.5291   -0.9403 C   0  0  0  0  0  0  0  0  0  0  0  0
   -2.7047   -3.9886    0.2967 C   0  0  0  0  0  0  0  0  0  0  0  0
    1.8405   -0.9480    0.3114 H   0  0  0  0  0  0  0  0  0  0  0  0
    2.0386    0.7961    0.3463 H   0  0  0  0  0  0  0  0  0  0  0  0
    2.7322   -0.1251   -0.9785 H   0  0  0  0  0  0  0  0  0  0  0  0
   -0.2570    0.2130   -0.4063 H   0  0  0  0  0  0  0  0  0  0  0  0
    0.6428    1.0779   -1.6508 H   0  0  0  0  0  0  0  0  0  0  0  0
   -0.5538   -0.7422   -2.7048 H   0  0  0  0  0  0  0  0  0  0  0  0
    1.1881   -1.0723   -2.7793 H   0  0  0  0  0  0  0  0  0  0  0  0
    2.0951   -2.8119   -1.6746 H   0  0  0  0  0  0  0  0  0  0  0  0
    1.8048   -4.9309   -0.4165 H   0  0  0  0  0  0  0  0  0  0  0  0
   -0.4311   -5.4891    0.5146 H   0  0  0  0  0  0  0  0  0  0  0  0
   -1.8751   -1.8082   -1.1227 H   0  0  0  0  0  0  0  0  0  0  0  0
   -3.1929   -4.7213   -0.3469 H   0  0  0  0  0  0  0  0  0  0  0  0
   -2.6457   -4.4216    1.2926 H   0  0  0  0  0  0  0  0  0  0  0  0
   -3.3261   -3.0983    0.3289 H   0  0  0  0  0  0  0  0  0  0  0  0
  1  2  1  0  0  0  0
  2  3  1  0  0  0  0
  3  4  1  0  0  0  0
  4  5  4  0  0  0  0
  5  6  4  0  0  0  0
  6  7  4  0  0  0  0
  7  8  4  0  0  0  0
  4  9  4  0  0  0  0
  8  9  4  0  0  0  0
  8 10  1  0  0  0  0
  1 11  1  0  0  0  0
  1 12  1  0  0  0  0
  1 13  1  0  0  0  0
  2 14  1  0  0  0  0
  2 15  1  0  0  0  0
  3 16  1  0  0  0  0
  3 17  1  0  0  0  0
  5 18  1  0  0  0  0
  6 19  1  0  0  0  0
  7 20  1  0  0  0  0
  9 21  1  0  0  0  0
 10 22  1  0  0  0  0
 10 23  1  0  0  0  0
 10 24  1  0  0  0  0
M  CHG  1   1   1
M  END
