47

C          1.03680       -0.41769        0.51096
C          0.87561        1.08106        0.71339
C          1.26004        1.90483       -0.51773
C          0.41355        1.65147       -1.76999
C         -1.08450        1.94527       -1.62630
C         -1.44231        3.37564       -1.20411
C         -0.87705        4.48557       -2.09637
C         -1.34446        4.45558       -3.55509
C         -2.84409        4.68502       -3.78811
C         -3.46820        5.96278       -3.21253
N         -3.29047        7.24672       -4.04747
C         -3.95102        7.12873       -5.46043
C         -5.44124        6.81891       -5.46421
O         -6.32144        7.58457       -5.10826
O         -5.71646        5.54854       -5.81099
C         -3.97792        8.39271       -3.27997
C         -1.83325        7.63590       -4.23001
H          0.33251       -0.80010       -0.23346
H          0.84629       -0.94662        1.45029
H          2.05281       -0.66288        0.18537
H         -0.15265        1.30224        1.01861
H          1.51889        1.38841        1.54695
H          1.21780        2.96802       -0.25449
H          2.30934        1.69937       -0.76514
H          0.82308        2.25203       -2.59099
H          0.53449        0.60868       -2.08647
H         -1.57398        1.71782       -2.58086
H         -1.52210        1.24935       -0.90056
H         -2.53421        3.46343       -1.15777
H         -1.08984        3.54407       -0.17939
H         -1.12036        5.45473       -1.64780
H          0.21797        4.43460       -2.08585
H         -0.75928        5.18838       -4.11431
H         -1.07684        3.48942       -3.99977
H         -3.04806        4.59908       -4.85954
H         -3.37502        3.83858       -3.33291
H         -4.55051        5.81166       -3.12075
H         -3.09279        6.18086       -2.20797
H         -3.79709        8.08689       -5.97113
H         -3.40094        6.36909       -6.02424
H         -6.69760        5.46573       -5.78514
H         -3.40890        8.57413       -2.36282
H         -3.97575        9.28520       -3.91259
H         -4.99814        8.09405       -3.02829
H         -1.32633        7.55998       -3.26432
H         -1.38288        6.97734       -4.97464
H         -1.79208        8.66580       -4.59889
