 xtb: 6.7.1 (edcfbbe)
          12202407003D

 31 32  0     0  0            999 V2000
   -2.0957    0.0970    0.5313 Cl  0  0  0  0  0  0  0  0  0  0  0  0
   -0.3978    0.0704    0.3072 C   0  0  0  0  0  0  0  0  0  0  0  0
    0.2629   -1.1402    0.1179 C   0  0  0  0  0  0  0  0  0  0  0  0
    1.6280   -1.1465   -0.0597 C   0  0  0  0  0  0  0  0  0  0  0  0
    2.3652    0.0458   -0.0440 C   0  0  0  0  0  0  0  0  0  0  0  0
    1.6847    1.2532    0.1456 C   0  0  0  0  0  0  0  0  0  0  0  0
    0.3174    1.2663    0.3151 C   0  0  0  0  0  0  0  0  0  0  0  0
    3.8125   -0.0608   -0.2347 C   0  0  0  0  0  0  0  0  0  0  0  0
    4.3781   -1.0827   -0.5347 O   0  0  0  0  0  0  0  0  0  0  0  0
    4.6598    1.2297   -0.0512 C   0  0  0  0  0  0  0  0  0  0  0  0
    4.5742    2.0580   -1.2304 N   0  0  0  0  0  0  0  0  0  0  0  0
    4.5600    1.5678   -2.5061 C   0  0  0  0  0  0  0  0  0  0  0  0
    4.4855    2.6326   -3.3442 C   0  0  0  0  0  0  0  0  0  0  0  0
    4.4608    3.7586   -2.5729 N   0  0  0  0  0  0  0  0  0  0  0  0
    4.5226    3.3953   -1.2850 C   0  0  0  0  0  0  0  0  0  0  0  0
    4.5408    4.3188   -0.1317 C   0  0  0  0  0  0  0  0  0  0  0  0
    4.3821    5.1067   -3.0724 C   0  0  0  0  0  0  0  0  0  0  0  0
   -0.2952   -2.0625    0.1127 H   0  0  0  0  0  0  0  0  0  0  0  0
    2.1595   -2.0744   -0.2069 H   0  0  0  0  0  0  0  0  0  0  0  0
    2.2120    2.1947    0.1572 H   0  0  0  0  0  0  0  0  0  0  0  0
   -0.2079    2.1968    0.4608 H   0  0  0  0  0  0  0  0  0  0  0  0
    4.3320    1.7819    0.8287 H   0  0  0  0  0  0  0  0  0  0  0  0
    5.6970    0.9050    0.0877 H   0  0  0  0  0  0  0  0  0  0  0  0
    4.6090    0.5187   -2.7147 H   0  0  0  0  0  0  0  0  0  0  0  0
    4.4508    2.6681   -4.4133 H   0  0  0  0  0  0  0  0  0  0  0  0
    3.5404    4.4498    0.2843 H   0  0  0  0  0  0  0  0  0  0  0  0
    5.1884    3.9400    0.6561 H   0  0  0  0  0  0  0  0  0  0  0  0
    4.9038    5.2976   -0.4336 H   0  0  0  0  0  0  0  0  0  0  0  0
    3.4832    5.6011   -2.7026 H   0  0  0  0  0  0  0  0  0  0  0  0
    5.2560    5.6824   -2.7643 H   0  0  0  0  0  0  0  0  0  0  0  0
    4.3483    5.0815   -4.1590 H   0  0  0  0  0  0  0  0  0  0  0  0
  1  2  1  0  0  0  0
  2  3  4  0  0  0  0
  3  4  4  0  0  0  0
  4  5  4  0  0  0  0
  5  6  4  0  0  0  0
  2  7  4  0  0  0  0
  6  7  4  0  0  0  0
  5  8  1  0  0  0  0
  8  9  2  0  0  0  0
  8 10  1  0  0  0  0
 10 11  1  0  0  0  0
 11 12  4  0  0  0  0
 12 13  2  0  0  0  0
 13 14  4  0  0  0  0
 11 15  4  0  0  0  0
 14 15  4  0  0  0  0
 15 16  1  0  0  0  0
 14 17  1  0  0  0  0
  3 18  1  0  0  0  0
  4 19  1  0  0  0  0
  6 20  1  0  0  0  0
  7 21  1  0  0  0  0
 10 22  1  0  0  0  0
 10 23  1  0  0  0  0
 12 24  1  0  0  0  0
 13 25  1  0  0  0  0
 16 26  1  0  0  0  0
 16 27  1  0  0  0  0
 16 28  1  0  0  0  0
 17 29  1  0  0  0  0
 17 30  1  0  0  0  0
 17 31  1  0  0  0  0
M  CHG  1   1   1
M  END
