 xtb: 6.7.1 (edcfbbe)
          12202407003D

 11 10  0     0  0            999 V2000
    1.0399   -0.0104    0.1029 C   0  0  0  0  0  0  0  0  0  0  0  0
    0.5680    1.3642    0.3696 N   0  0  0  0  0  0  0  0  0  0  0  0
    1.0399    2.3379   -0.6367 C   0  0  0  0  0  0  0  0  0  0  0  0
    0.6835   -0.3424   -0.8704 H   0  0  0  0  0  0  0  0  0  0  0  0
    0.6717   -0.6948    0.8644 H   0  0  0  0  0  0  0  0  0  0  0  0
    2.1280   -0.0356    0.1038 H   0  0  0  0  0  0  0  0  0  0  0  0
   -0.4599    1.3699    0.3875 H   0  0  0  0  0  0  0  0  0  0  0  0
    0.8930    1.6572    1.3000 H   0  0  0  0  0  0  0  0  0  0  0  0
    0.6835    2.0522   -1.6246 H   0  0  0  0  0  0  0  0  0  0  0  0
    0.6717    3.3351   -0.4049 H   0  0  0  0  0  0  0  0  0  0  0  0
    2.1280    2.3591   -0.6504 H   0  0  0  0  0  0  0  0  0  0  0  0
  1  2  1  0  0  0  0
  2  3  1  0  0  0  0
  1  4  1  0  0  0  0
  1  5  1  0  0  0  0
  1  6  1  0  0  0  0
  2  7  1  0  0  0  0
  2  8  1  0  0  0  0
  3  9  1  0  0  0  0
  3 10  1  0  0  0  0
  3 11  1  0  0  0  0
M  CHG  1   1   1
M  END
