11

N          0.98594       -0.10912       -0.20405
N          0.96243        1.07187       -1.07034
C         -0.27744        1.46427       -1.41203
N         -0.43939        2.74590       -1.07602
C          0.67804        3.11496       -0.43366
N          1.52456        2.06440       -0.33890
H          1.92415       -0.15992        0.20626
H          0.41191        0.09950        0.62118
H          1.48477        0.91185       -1.92704
H         -1.01856        0.86389       -1.92749
H          0.86844        4.09220       -0.01835
