 xtb: 6.7.1 (edcfbbe)
          12202407003D

 11 11  0     0  0            999 V2000
    0.9853   -0.1091   -0.1889 N   0  0  0  0  0  0  0  0  0  0  0  0
    1.0081    1.0654   -0.9337 N   0  0  0  0  0  0  0  0  0  0  0  0
   -0.3560    1.5555   -1.4235 C   0  0  0  0  0  0  0  0  0  0  0  0
   -0.4874    2.7622   -1.1417 N   0  0  0  0  0  0  0  0  0  0  0  0
    0.6785    3.1617   -0.4687 C   0  0  0  0  0  0  0  0  0  0  0  0
    1.5430    2.2443   -0.3239 N   0  0  0  0  0  0  0  0  0  0  0  0
    1.9182   -0.4532    0.0246 H   0  0  0  0  0  0  0  0  0  0  0  0
    0.4598    0.0014    0.6758 H   0  0  0  0  0  0  0  0  0  0  0  0
    1.5849    0.8802   -1.7782 H   0  0  0  0  0  0  0  0  0  0  0  0
   -1.0347    0.8830   -1.9129 H   0  0  0  0  0  0  0  0  0  0  0  0
    0.8051    4.1685   -0.1093 H   0  0  0  0  0  0  0  0  0  0  0  0
  1  2  1  0  0  0  0
  2  3  1  0  0  0  0
  3  4  2  0  0  0  0
  4  5  1  0  0  0  0
  2  6  1  0  0  0  0
  5  6  2  0  0  0  0
  1  7  1  0  0  0  0
  1  8  1  0  0  0  0
  2  9  1  0  0  0  0
  3 10  1  0  0  0  0
  5 11  1  0  0  0  0
M  CHG  1   1   1
M  END
