27

C          1.00750       -0.25627        0.14659
C          0.41746        1.08911       -0.24475
C          0.87231        1.58036       -1.62104
C          0.43468        0.71626       -2.80175
N         -1.04461        0.63918       -2.89157
C         -1.67697       -0.52346       -2.60779
C         -3.06132       -0.61940       -2.69582
C         -3.80965        0.49282       -3.07598
C         -3.13650        1.67107       -3.39268
C         -1.75035        1.72189       -3.29484
C         -5.30293        0.40109       -3.20535
H          0.65359       -1.05837       -0.50636
H          0.71493       -0.50952        1.17074
H          2.10087       -0.23291        0.10340
H         -0.67587        1.03954       -0.19811
H          0.72554        1.83062        0.50253
H          0.49898        2.60226       -1.75816
H          1.96699        1.65144       -1.63082
H          0.78310        1.14737       -3.74782
H          0.84026       -0.29827       -2.73714
H         -1.06952       -1.37362       -2.31148
H         -3.55163       -1.56421       -2.46642
H         -3.68626        2.55330       -3.71643
H         -1.19590        2.62449       -3.53567
H         -5.56986        0.02250       -4.19674
H         -5.71731       -0.26889       -2.44464
H         -5.76942        1.38167       -3.06412
