 xtb: 6.7.1 (edcfbbe)
          12202407013D

 49 50  0     0  0            999 V2000
    1.8725   -0.0589    0.1827 C   0  0  0  0  0  0  0  0  0  0  0  0
    0.9866   -0.5932    1.3012 C   0  0  0  0  0  0  0  0  0  0  0  0
    1.1677    0.1463    2.6292 C   0  0  0  0  0  0  0  0  0  0  0  0
    0.8521    1.6441    2.5794 C   0  0  0  0  0  0  0  0  0  0  0  0
   -0.5935    1.9826    2.2140 C   0  0  0  0  0  0  0  0  0  0  0  0
   -1.6108    1.6255    3.3039 C   0  0  0  0  0  0  0  0  0  0  0  0
   -1.4942    2.5053    4.4467 N   0  0  0  0  0  0  0  0  0  0  0  0
   -1.9016    3.8233    4.4412 C   0  0  0  0  0  0  0  0  0  0  0  0
   -2.5353    4.5935    3.4750 C   0  0  0  0  0  0  0  0  0  0  0  0
   -2.8222    5.9079    3.7982 C   0  0  0  0  0  0  0  0  0  0  0  0
   -3.6053    6.9031    2.6447 Cl  0  0  0  0  0  0  0  0  0  0  0  0
   -2.4818    6.4434    5.0619 C   0  0  0  0  0  0  0  0  0  0  0  0
   -1.8599    5.6724    6.0280 C   0  0  0  0  0  0  0  0  0  0  0  0
   -1.5750    4.3530    5.7010 C   0  0  0  0  0  0  0  0  0  0  0  0
   -0.9894    3.3293    6.4195 N   0  0  0  0  0  0  0  0  0  0  0  0
   -0.9538    2.2367    5.6421 C   0  0  0  0  0  0  0  0  0  0  0  0
   -0.4359    0.9136    6.0483 C   0  0  0  0  0  0  0  0  0  0  0  0
   -0.5050    3.4426    7.7788 C   0  0  0  0  0  0  0  0  0  0  0  0
    1.0151    3.6327    7.8432 C   0  0  0  0  0  0  0  0  0  0  0  0
    1.4709    5.0294    7.4025 C   0  0  0  0  0  0  0  0  0  0  0  0
    0.9848    6.0996    8.3599 C   0  0  0  0  0  0  0  0  0  0  0  0
   -0.1769    6.3149    8.6024 O   0  0  0  0  0  0  0  0  0  0  0  0
    1.9829    6.7680    8.9073 O   0  0  0  0  0  0  0  0  0  0  0  0
   -2.8512    8.0794    5.4073 Cl  0  0  0  0  0  0  0  0  0  0  0  0
    1.5812    0.9462   -0.1120 H   0  0  0  0  0  0  0  0  0  0  0  0
    1.7919   -0.6992   -0.6914 H   0  0  0  0  0  0  0  0  0  0  0  0
    2.9137   -0.0412    0.4960 H   0  0  0  0  0  0  0  0  0  0  0  0
   -0.0589   -0.5573    0.9889 H   0  0  0  0  0  0  0  0  0  0  0  0
    1.2326   -1.6431    1.4720 H   0  0  0  0  0  0  0  0  0  0  0  0
    0.5465   -0.3487    3.3806 H   0  0  0  0  0  0  0  0  0  0  0  0
    2.2076    0.0352    2.9442 H   0  0  0  0  0  0  0  0  0  0  0  0
    1.0987    2.0986    3.5439 H   0  0  0  0  0  0  0  0  0  0  0  0
    1.5041    2.1075    1.8396 H   0  0  0  0  0  0  0  0  0  0  0  0
   -0.6638    3.0509    2.0032 H   0  0  0  0  0  0  0  0  0  0  0  0
   -0.8720    1.4486    1.3069 H   0  0  0  0  0  0  0  0  0  0  0  0
   -2.6240    1.7324    2.9091 H   0  0  0  0  0  0  0  0  0  0  0  0
   -1.4721    0.5952    3.6285 H   0  0  0  0  0  0  0  0  0  0  0  0
   -2.8081    4.2027    2.5095 H   0  0  0  0  0  0  0  0  0  0  0  0
   -1.6064    6.0988    6.9863 H   0  0  0  0  0  0  0  0  0  0  0  0
   -0.1616    0.9051    7.0981 H   0  0  0  0  0  0  0  0  0  0  0  0
   -1.1922    0.1458    5.8840 H   0  0  0  0  0  0  0  0  0  0  0  0
    0.4432    0.6441    5.4627 H   0  0  0  0  0  0  0  0  0  0  0  0
   -0.9955    4.3028    8.2368 H   0  0  0  0  0  0  0  0  0  0  0  0
   -0.7935    2.5478    8.3341 H   0  0  0  0  0  0  0  0  0  0  0  0
    1.3324    3.4642    8.8730 H   0  0  0  0  0  0  0  0  0  0  0  0
    1.5109    2.8893    7.2161 H   0  0  0  0  0  0  0  0  0  0  0  0
    2.5587    5.0704    7.3728 H   0  0  0  0  0  0  0  0  0  0  0  0
    1.0802    5.2595    6.4089 H   0  0  0  0  0  0  0  0  0  0  0  0
    1.6721    7.4569    9.5187 H   0  0  0  0  0  0  0  0  0  0  0  0
  1  2  1  0  0  0  0
  2  3  1  0  0  0  0
  3  4  1  0  0  0  0
  4  5  1  0  0  0  0
  5  6  1  0  0  0  0
  6  7  1  0  0  0  0
  7  8  1  0  0  0  0
  8  9  4  0  0  0  0
  9 10  4  0  0  0  0
 10 11  1  0  0  0  0
 10 12  4  0  0  0  0
 12 13  4  0  0  0  0
  8 14  4  0  0  0  0
 13 14  4  0  0  0  0
 14 15  1  0  0  0  0
  7 16  4  0  0  0  0
 15 16  4  0  0  0  0
 16 17  1  0  0  0  0
 15 18  1  0  0  0  0
 18 19  1  0  0  0  0
 19 20  1  0  0  0  0
 20 21  1  0  0  0  0
 21 22  2  0  0  0  0
 21 23  1  0  0  0  0
 12 24  1  0  0  0  0
  1 25  1  0  0  0  0
  1 26  1  0  0  0  0
  1 27  1  0  0  0  0
  2 28  1  0  0  0  0
  2 29  1  0  0  0  0
  3 30  1  0  0  0  0
  3 31  1  0  0  0  0
  4 32  1  0  0  0  0
  4 33  1  0  0  0  0
  5 34  1  0  0  0  0
  5 35  1  0  0  0  0
  6 36  1  0  0  0  0
  6 37  1  0  0  0  0
  9 38  1  0  0  0  0
 13 39  1  0  0  0  0
 17 40  1  0  0  0  0
 17 41  1  0  0  0  0
 17 42  1  0  0  0  0
 18 43  1  0  0  0  0
 18 44  1  0  0  0  0
 19 45  1  0  0  0  0
 19 46  1  0  0  0  0
 20 47  1  0  0  0  0
 20 48  1  0  0  0  0
 23 49  1  0  0  0  0
M  CHG  1   1   1
M  END
