36

C          0.28993        0.04480        0.64485
O         -0.25930       -1.11377        1.25551
C          0.38855       -2.30244        1.07393
C         -0.28464       -3.41409        1.58741
C          0.23901       -4.70299        1.46312
O         -0.53912       -5.68931        1.99857
C         -0.09676       -7.03221        1.83857
C          1.46670       -4.87831        0.83161
C          2.16404       -3.76548        0.33812
C          1.61962       -2.47803        0.44420
C          3.47182       -4.00525       -0.32408
O          3.64556       -5.05131       -0.95064
C          4.56473       -2.95079       -0.22209
N          4.79020       -2.26019       -1.50530
C          4.96225       -2.87323       -2.74253
C          5.15595       -1.87440       -3.65345
N          5.12343       -0.68109       -2.95006
C          4.93333       -0.93456       -1.64757
C          5.31029        0.64701       -3.52186
H         -0.38402        0.88305        0.84537
H          0.36039       -0.07624       -0.44125
H          1.26601        0.28918        1.07647
H         -1.24554       -3.27657        2.08187
H         -0.01525       -7.29756        0.77933
H          0.85069       -7.19783        2.36168
H         -0.84716       -7.68780        2.29061
H          1.90114       -5.86767        0.71553
H          2.13722       -1.62833        0.01917
H          4.34096       -2.21306        0.55383
H          5.49825       -3.44685        0.06660
H          4.92110       -3.94766       -2.82166
H          5.32238       -1.85811       -4.71720
H          4.89567       -0.19627       -0.85457
H          4.85815        1.39518       -2.86519
H          6.38147        0.84116       -3.61933
H          4.83130        0.69488       -4.50350
