 xtb: 6.7.1 (edcfbbe)
          12202407003D

 23 22  0     0  0            999 V2000
    1.2051   -0.2071    0.0027 C   0  0  0  0  0  0  0  0  0  0  0  0
    0.7188    1.2325   -0.1342 C   0  0  0  0  0  0  0  0  0  0  0  0
    1.0201    1.8286   -1.5054 C   0  0  0  0  0  0  0  0  0  0  0  0
    0.4456    1.0068   -2.6088 N   0  0  0  0  0  0  0  0  0  0  0  0
   -1.0398    1.0258   -2.7363 C   0  0  0  0  0  0  0  0  0  0  0  0
   -1.5517    2.3728   -3.2362 C   0  0  0  0  0  0  0  0  0  0  0  0
   -0.9257    2.7853   -4.5649 C   0  0  0  0  0  0  0  0  0  0  0  0
    0.6101   -0.9046   -0.5861 H   0  0  0  0  0  0  0  0  0  0  0  0
    1.1217   -0.5205    1.0389 H   0  0  0  0  0  0  0  0  0  0  0  0
    2.2509   -0.2952   -0.2834 H   0  0  0  0  0  0  0  0  0  0  0  0
   -0.3472    1.2896    0.0870 H   0  0  0  0  0  0  0  0  0  0  0  0
    1.2289    1.8534    0.6023 H   0  0  0  0  0  0  0  0  0  0  0  0
    0.6259    2.8419   -1.5796 H   0  0  0  0  0  0  0  0  0  0  0  0
    2.1016    1.8664   -1.6529 H   0  0  0  0  0  0  0  0  0  0  0  0
    0.8216    1.3347   -3.5071 H   0  0  0  0  0  0  0  0  0  0  0  0
    0.7600    0.0414   -2.4501 H   0  0  0  0  0  0  0  0  0  0  0  0
   -1.3181    0.2466   -3.4492 H   0  0  0  0  0  0  0  0  0  0  0  0
   -1.4790    0.7820   -1.7693 H   0  0  0  0  0  0  0  0  0  0  0  0
   -2.6299    2.2763   -3.3641 H   0  0  0  0  0  0  0  0  0  0  0  0
   -1.3896    3.1500   -2.4892 H   0  0  0  0  0  0  0  0  0  0  0  0
   -1.0157    1.9911   -5.3027 H   0  0  0  0  0  0  0  0  0  0  0  0
   -1.4450    3.6552   -4.9553 H   0  0  0  0  0  0  0  0  0  0  0  0
    0.1225    3.0645   -4.4616 H   0  0  0  0  0  0  0  0  0  0  0  0
  1  2  1  0  0  0  0
  2  3  1  0  0  0  0
  3  4  1  0  0  0  0
  4  5  1  0  0  0  0
  5  6  1  0  0  0  0
  6  7  1  0  0  0  0
  1  8  1  0  0  0  0
  1  9  1  0  0  0  0
  1 10  1  0  0  0  0
  2 11  1  0  0  0  0
  2 12  1  0  0  0  0
  3 13  1  0  0  0  0
  3 14  1  0  0  0  0
  4 15  1  0  0  0  0
  4 16  1  0  0  0  0
  5 17  1  0  0  0  0
  5 18  1  0  0  0  0
  6 19  1  0  0  0  0
  6 20  1  0  0  0  0
  7 21  1  0  0  0  0
  7 22  1  0  0  0  0
  7 23  1  0  0  0  0
M  CHG  1   1   1
M  END
