120

C          1.11398        0.16689        0.20019
C          0.93009        1.35142       -0.73639
C          1.38739        1.07583       -2.17142
C          0.67940       -0.08344       -2.87955
C         -0.84564        0.03056       -2.96188
C         -1.37460        1.22896       -3.75774
C         -0.97671        1.27007       -5.23866
C         -1.27783        0.00023       -6.03951
C         -2.75017       -0.41930       -6.06905
C         -3.67179        0.46390       -6.91153
N         -3.17813        0.65120       -8.28862
C         -2.76231        1.87151       -8.81280
C         -2.87765        3.17562       -8.33574
C         -2.27225        4.17813       -9.10847
Cl        -2.41426        5.79963       -8.52614
C         -1.57812        3.87282      -10.29849
C         -1.47203        2.55521      -10.76432
C         -2.09059        1.57202       -9.99372
N         -2.19391        0.19080      -10.16708
C         -2.95277       -0.34733       -9.18016
C         -3.47358       -1.76292       -9.01686
C         -3.01948       -2.90261       -9.55894
C         -3.57457       -4.21528       -9.27595
C         -3.09460       -5.39837       -9.72451
N         -2.03539       -5.56599      -10.66531
C         -2.04051       -4.96519      -12.01064
C         -0.64239       -4.43820      -12.37152
C         -0.26258       -4.71907      -13.82170
C         -1.13732       -3.97168      -14.78639
O         -1.01867       -2.80097      -15.09990
O         -2.15803       -4.71751      -15.24214
C         -1.82176       -6.98409      -10.72891
C         -2.74685       -7.63257       -9.88011
N         -3.54234       -6.65508       -9.26039
C         -4.37359       -6.99646       -8.11266
C         -3.56459       -7.12830       -6.80871
C         -3.15151       -5.80274       -6.15422
C         -4.33884       -4.99408       -5.61496
C         -4.61290       -5.22443       -4.12410
C         -3.64463       -4.51552       -3.16793
C         -3.52056       -2.99867       -3.35392
C         -4.83681       -2.21553       -3.28534
C         -5.48067       -2.15973       -1.90000
C         -4.66943       -1.33933       -0.90717
C         -2.78856       -9.01219       -9.80649
C         -1.88340       -9.74896      -10.58259
C         -0.93954       -9.09779      -11.40140
C         -0.90283       -7.70229      -11.47331
Cl         0.20546       -9.96677      -12.36312
Cl        -1.98737      -11.47338      -10.50205
C         -1.58300       -0.52537      -11.29555
C         -2.59991       -0.85546      -12.38902
C         -2.75553        0.24968      -13.43496
C         -1.60170        0.36975      -14.39881
O         -1.63252        0.97932      -15.45351
O         -0.46952       -0.21821      -13.97780
Cl        -0.81793        5.09602      -11.25438
H          0.47183       -0.67271       -0.08179
H          0.85200        0.45328        1.22386
H          2.15328       -0.17644        0.20023
H         -0.11850        1.66788       -0.72425
H          1.51073        2.19609       -0.34626
H          1.26519        1.99217       -2.76064
H          2.46439        0.86469       -2.16251
H          1.09653       -0.18123       -3.88874
H          0.92844       -1.02155       -2.36875
H         -1.23470       -0.89562       -3.39820
H         -1.26653        0.07045       -1.95061
H         -2.46867        1.23517       -3.68264
H         -1.04408        2.16008       -3.28261
H         -1.47706        2.12447       -5.70860
H          0.09819        1.47520       -5.31310
H         -0.90468        0.13090       -7.06157
H         -0.69347       -0.83022       -5.62597
H         -2.79386       -1.44707       -6.44294
H         -3.14585       -0.45891       -5.05265
H         -4.67492        0.02668       -6.96840
H         -3.78719        1.43617       -6.42362
H         -3.40655        3.40623       -7.41931
H         -0.93830        2.31754      -11.67660
H         -4.30976       -1.83142       -8.32624
H         -2.13332       -2.91920      -10.17231
H         -4.40361       -4.23615       -8.57400
H         -2.41053       -5.68581      -12.75169
H         -2.74876       -4.12966      -12.05921
H         -0.60641       -3.35939      -12.18519
H          0.12465       -4.87643      -11.72182
H          0.77200       -4.40806      -14.00688
H         -0.30323       -5.79068      -14.04571
H         -2.62337       -4.15990      -15.90206
H         -5.18865       -6.27497       -8.00913
H         -4.88164       -7.95083       -8.29982
H         -4.16091       -7.69858       -6.08586
H         -2.65829       -7.71853       -6.99229
H         -2.44208       -6.01755       -5.34670
H         -2.59481       -5.19750       -6.87550
H         -4.16573       -3.93143       -5.81120
H         -5.25346       -5.24198       -6.16192
H         -5.63378       -4.89239       -3.90191
H         -4.59695       -6.30035       -3.91078
H         -3.95721       -4.72712       -2.13853
H         -2.64564       -4.95519       -3.27376
H         -2.81840       -2.61271       -2.60708
H         -3.04574       -2.80195       -4.32087
H         -4.65291       -1.18713       -3.61571
H         -5.55765       -2.62845       -3.99939
H         -6.46961       -1.69596       -1.99998
H         -5.64442       -3.16776       -1.50569
H         -4.45879       -0.34005       -1.30291
H         -5.22584       -1.22106        0.02774
H         -3.71757       -1.82265       -0.66965
H         -3.51568       -9.52508       -9.18814
H         -0.16558       -7.21098      -12.09381
H         -0.74495        0.06860      -11.66625
H         -1.10818       -1.42377      -10.90184
H         -2.29544       -1.77800      -12.89284
H         -3.58157       -1.05102      -11.94286
H         -3.63843        0.01493      -14.04153
H         -2.91843        1.22047      -12.95975
H          0.10863       -0.20830      -14.77558
