22

C          0.96590        0.46371       -0.35421
N          0.42439        1.32506        0.78355
C          0.94818        2.75032        0.57842
C         -1.09558        1.35820        0.71855
C          0.92691        0.83987        2.16908
C          0.48702       -0.57871        2.57335
N          1.14217       -1.58339        1.72612
N          0.53413       -2.66504        1.59753
N         -0.04822       -3.63008        1.45191
H          0.77907        0.98374       -1.29899
H          0.43156       -0.48829       -0.36776
H          2.04005        0.32279       -0.20555
H          0.59195        3.11667       -0.38928
H          0.56430        3.37949        1.38674
H          2.04169        2.72165        0.59654
H         -1.47685        0.33611        0.78258
H         -1.46463        1.96193        1.55252
H         -1.39148        1.80216       -0.23678
H          2.02115        0.90985        2.14772
H          0.54595        1.56049        2.90257
H          0.79511       -0.75183        3.61166
H         -0.60388       -0.67314        2.54490
