 xtb: 6.7.1 (edcfbbe)
          12202407013D

 25 24  0     0  0            999 V2000
    0.2672   -0.4424   -0.5176 C   0  0  0  0  0  0  0  0  0  0  0  0
    0.5186    0.9819   -0.9942 C   0  0  0  0  0  0  0  0  0  0  0  0
    1.2978    1.0099   -2.1895 O   0  0  0  0  0  0  0  0  0  0  0  0
    2.6162    0.9762   -2.2252 C   0  0  0  0  0  0  0  0  0  0  0  0
    3.5895    0.9718   -1.2995 C   0  0  0  0  0  0  0  0  0  0  0  0
    4.9702    0.9806   -1.8434 N   0  0  0  0  0  0  0  0  0  0  0  0
    5.6745   -0.3019   -1.6316 C   0  0  0  0  0  0  0  0  0  0  0  0
    5.7658    2.1222   -1.3471 C   0  0  0  0  0  0  0  0  0  0  0  0
    3.5116    1.0031    0.1968 C   0  0  0  0  0  0  0  0  0  0  0  0
   -0.2440   -1.0067   -1.2928 H   0  0  0  0  0  0  0  0  0  0  0  0
   -0.3624   -0.4205    0.3668 H   0  0  0  0  0  0  0  0  0  0  0  0
    1.1950   -0.9575   -0.2773 H   0  0  0  0  0  0  0  0  0  0  0  0
   -0.4284    1.4401   -1.2896 H   0  0  0  0  0  0  0  0  0  0  0  0
    0.9783    1.5998   -0.2200 H   0  0  0  0  0  0  0  0  0  0  0  0
    2.9149    0.9684   -3.2737 H   0  0  0  0  0  0  0  0  0  0  0  0
    4.8733    1.0995   -2.8584 H   0  0  0  0  0  0  0  0  0  0  0  0
    6.6405   -0.2843   -2.1326 H   0  0  0  0  0  0  0  0  0  0  0  0
    5.8369   -0.4738   -0.5701 H   0  0  0  0  0  0  0  0  0  0  0  0
    5.0774   -1.1184   -2.0330 H   0  0  0  0  0  0  0  0  0  0  0  0
    5.9545    2.0143   -0.2817 H   0  0  0  0  0  0  0  0  0  0  0  0
    6.7198    2.1660   -1.8690 H   0  0  0  0  0  0  0  0  0  0  0  0
    5.2231    3.0496   -1.5193 H   0  0  0  0  0  0  0  0  0  0  0  0
    3.4425    2.0247    0.5721 H   0  0  0  0  0  0  0  0  0  0  0  0
    2.6478    0.4546    0.5572 H   0  0  0  0  0  0  0  0  0  0  0  0
    4.3876    0.5413    0.6448 H   0  0  0  0  0  0  0  0  0  0  0  0
  1  2  1  0  0  0  0
  2  3  1  0  0  0  0
  3  4  1  0  0  0  0
  4  5  2  0  0  0  0
  5  6  1  0  0  0  0
  6  7  1  0  0  0  0
  6  8  1  0  0  0  0
  5  9  1  0  0  0  0
  1 10  1  0  0  0  0
  1 11  1  0  0  0  0
  1 12  1  0  0  0  0
  2 13  1  0  0  0  0
  2 14  1  0  0  0  0
  4 15  1  0  0  0  0
  6 16  1  0  0  0  0
  7 17  1  0  0  0  0
  7 18  1  0  0  0  0
  7 19  1  0  0  0  0
  8 20  1  0  0  0  0
  8 21  1  0  0  0  0
  8 22  1  0  0  0  0
  9 23  1  0  0  0  0
  9 24  1  0  0  0  0
  9 25  1  0  0  0  0
M  CHG  1   1   1
M  END
