68

C          1.09052       -0.77694        0.32701
C          1.09892        0.32746        1.37288
C          1.46473        1.70126        0.80432
C          0.51359        2.24451       -0.26822
C         -0.94665        2.40293        0.16981
C         -1.17361        3.35421        1.35032
C         -0.74957        4.80771        1.10693
C         -1.48046        5.51781       -0.03936
C         -3.00254        5.61480        0.12028
C         -3.47703        6.40142        1.34835
C         -3.08161        7.88400        1.36544
C         -3.62344        8.71857        0.19723
C         -5.15276        8.78812        0.10938
C         -5.82086        9.58711        1.23543
C         -5.59090       11.10353        1.18151
C         -6.13598       11.80210       -0.06487
N         -7.60321       11.80021       -0.11283
C         -8.43086       12.84712        0.25894
C         -9.71537       12.42023        0.07387
N         -9.64209       11.12566       -0.41370
C         -8.35291       10.76938       -0.53778
C        -10.79159       10.23485       -0.65886
C        -10.50672        9.24310       -1.77655
N         -9.89649        8.10453       -1.61620
O         -9.58924        7.86001       -0.27452
C        -10.86893        9.66216       -3.17811
H          0.29929       -0.62393       -0.41269
H          0.91410       -1.74607        0.80459
H          2.05008       -0.82797       -0.19725
H          0.12556        0.36562        1.87370
H          1.83269        0.06768        2.14552
H          1.53085        2.41714        1.63192
H          2.47289        1.64712        0.37429
H          0.89771        3.21065       -0.61612
H          0.54389        1.58676       -1.14498
H         -1.53358        2.74213       -0.69171
H         -1.35614        1.42006        0.43078
H         -2.23520        3.32439        1.62199
H         -0.63905        2.97779        2.23017
H         -0.89418        5.37219        2.03546
H          0.32805        4.84516        0.90951
H         -1.05997        6.52403       -0.15073
H         -1.26102        5.00497       -0.98311
H         -3.42146        6.06347       -0.78776
H         -3.42911        4.60612        0.16591
H         -4.56709        6.31292        1.41873
H         -3.09169        5.92726        2.25828
H         -3.41606        8.32153        2.31296
H         -1.98863        7.96774        1.37512
H         -3.21140        9.73144        0.26944
H         -3.23774        8.31340       -0.74531
H         -5.42683        9.21220       -0.86217
H         -5.56917        7.77500        0.10471
H         -6.89730        9.38522        1.21768
H         -5.47574        9.21652        2.20708
H         -6.05973       11.55011        2.06730
H         -4.51843       11.31210        1.26219
H         -5.80435       12.84761       -0.06425
H         -5.75933       11.35632       -0.99009
H         -7.99444       13.76299        0.61923
H        -10.67948       12.87022        0.23887
H         -7.97225        9.82112       -0.89897
H        -11.02883        9.71900        0.27624
H        -11.65596       10.84746       -0.93633
H         -9.34504        6.91000       -0.28142
H        -11.90279       10.01589       -3.20152
H        -10.20309       10.47081       -3.49145
H        -10.76406        8.82220       -3.87024
