30

F          0.83099       -0.04926        0.46159
C          1.95804       -0.05195       -0.27521
C          2.36698        1.35873       -0.64611
C          2.37454        2.35415        0.52526
C          3.05692        1.93752        1.83194
N          4.56112        2.23269        1.96428
C          4.99808        1.61127        3.30592
C          4.87595        3.73165        1.99158
C          5.34031        4.09531        0.59548
C          5.67080        2.80189       -0.12275
C          5.44568        1.66836        0.85948
F          2.93183       -0.63703        0.45865
F          1.76132       -0.80498       -1.37099
H          3.34529        1.32194       -1.12994
H          1.67025        1.73623       -1.40457
H          2.73521        3.32402        0.17457
H          1.31796        2.52487        0.77718
H          2.58420        2.49105        2.65411
H          2.91158        0.87762        2.05296
H          4.39691        2.06011        4.10220
H          4.83344        0.53099        3.25089
H          6.05947        1.82414        3.46674
H          5.68858        3.89649        2.70829
H          3.99177        4.28705        2.31907
H          4.56119        4.64486        0.05617
H          6.20941        4.76100        0.63825
H          5.03986        2.69414       -1.00942
H          6.70512        2.80023       -0.48425
H          4.97909        0.77979        0.42947
H          6.40413        1.37866        1.30607
