34

C         -0.27833        0.29073        0.76739
C          0.02152       -0.82384        1.75252
O          1.30615       -0.71106        2.34879
C          2.44485       -1.17838        1.62459
C          2.46419       -2.73659        1.43403
N          2.49643       -3.33015       -0.00696
C          3.70667       -2.83811       -0.79789
C          2.60682       -4.85109        0.12793
C          1.22930       -3.00892       -0.77696
O          2.68886       -0.45241        0.42703
C          3.17119        0.87016        0.68935
C          3.40419        1.56382       -0.63774
H         -0.07510        1.26905        1.21384
H         -1.32773        0.25617        0.45938
H          0.33389        0.21015       -0.13378
H         -0.70181       -0.75024        2.57213
H         -0.12597       -1.80660        1.30230
H          3.28640       -0.98352        2.30256
H          3.37705       -3.11687        1.91163
H          1.62087       -3.20494        1.95524
H          4.58065       -2.84836       -0.14109
H          3.86206       -3.51572       -1.64373
H          3.51510       -1.83941       -1.19148
H          1.75751       -5.20993        0.71671
H          2.58866       -5.29377       -0.87259
H          3.55031       -5.08475        0.63067
H          0.37731       -3.41700       -0.22604
H          1.13828       -1.92863       -0.89275
H          1.29509       -3.48162       -1.76197
H          2.44062        1.43032        1.28143
H          4.11483        0.81530        1.24351
H          2.47718        1.60902       -1.21829
H          3.77677        2.58070       -0.48549
H          4.13112        1.00819       -1.23945
