25

C          0.22416       -0.43426       -0.48131
C          0.54098        0.95455       -1.00584
O          1.32096        0.86588       -2.19163
C          2.67897        0.89974       -2.22688
C          3.65227        0.99713       -1.29494
N          5.00346        1.01682       -1.84612
C          5.66110       -0.32827       -1.69506
C          5.82441        2.14745       -1.28755
C          3.46281        1.05817        0.19993
H         -0.33411       -1.00526       -1.23104
H         -0.37612       -0.37683        0.43101
H          1.13349       -1.00501       -0.27260
H         -0.40211        1.43681       -1.28750
H          0.99537        1.60535       -0.25563
H          2.91496        0.83486       -3.28842
H          4.96285        1.20069       -2.85885
H          6.63510       -0.27772       -2.18989
H          5.78527       -0.55639       -0.63300
H          5.03699       -1.07758       -2.19129
H          6.04885        1.95436       -0.23505
H          6.75276        2.19458       -1.86413
H          5.26595        3.07963       -1.41347
H          3.24652        2.08458        0.51228
H          2.67023        0.39623        0.54824
H          4.36317        0.73278        0.73059
