 xtb: 6.7.1 (edcfbbe)
          12202407023D

 68 68  0     0  0            999 V2000
    1.1036   -0.5389    0.6384 C   0  0  0  0  0  0  0  0  0  0  0  0
    1.2631    0.7530    1.4311 C   0  0  0  0  0  0  0  0  0  0  0  0
    1.3893    1.9934    0.5454 C   0  0  0  0  0  0  0  0  0  0  0  0
    0.1808    2.2746   -0.3501 C   0  0  0  0  0  0  0  0  0  0  0  0
   -1.1455    2.4574    0.3898 C   0  0  0  0  0  0  0  0  0  0  0  0
   -1.1613    3.5877    1.4206 C   0  0  0  0  0  0  0  0  0  0  0  0
   -0.8332    4.9751    0.8657 C   0  0  0  0  0  0  0  0  0  0  0  0
   -1.7495    5.4555   -0.2612 C   0  0  0  0  0  0  0  0  0  0  0  0
   -3.2365    5.5134    0.0935 C   0  0  0  0  0  0  0  0  0  0  0  0
   -3.5829    6.4029    1.2891 C   0  0  0  0  0  0  0  0  0  0  0  0
   -3.1569    7.8660    1.1529 C   0  0  0  0  0  0  0  0  0  0  0  0
   -3.7276    8.5950   -0.0649 C   0  0  0  0  0  0  0  0  0  0  0  0
   -5.2556    8.6150   -0.1483 C   0  0  0  0  0  0  0  0  0  0  0  0
   -5.9628    9.2292    1.0627 C   0  0  0  0  0  0  0  0  0  0  0  0
   -5.5519   10.6637    1.3948 C   0  0  0  0  0  0  0  0  0  0  0  0
   -5.8918   11.6718    0.2909 C   0  0  0  0  0  0  0  0  0  0  0  0
   -7.3171   11.7308    0.0658 N   0  0  0  0  0  0  0  0  0  0  0  0
   -8.2169   12.3630    0.8672 C   0  0  0  0  0  0  0  0  0  0  0  0
   -9.4565   12.1203    0.3589 C   0  0  0  0  0  0  0  0  0  0  0  0
   -9.2938   11.3417   -0.7445 N   0  0  0  0  0  0  0  0  0  0  0  0
   -7.9907   11.1150   -0.8989 C   0  0  0  0  0  0  0  0  0  0  0  0
  -10.3370   10.8135   -1.5876 C   0  0  0  0  0  0  0  0  0  0  0  0
  -10.3484    9.2869   -1.6469 C   0  0  0  0  0  0  0  0  0  0  0  0
  -10.0006    8.4962   -0.7327 N   0  0  0  0  0  0  0  0  0  0  0  0
   -9.5249    9.0078    0.4702 O   0  0  0  0  0  0  0  0  0  0  0  0
  -10.8627    8.6956   -2.9128 C   0  0  0  0  0  0  0  0  0  0  0  0
    0.1583   -0.5564    0.1017 H   0  0  0  0  0  0  0  0  0  0  0  0
    1.1276   -1.3964    1.3071 H   0  0  0  0  0  0  0  0  0  0  0  0
    1.9114   -0.6450   -0.0827 H   0  0  0  0  0  0  0  0  0  0  0  0
    0.4192    0.8675    2.1137 H   0  0  0  0  0  0  0  0  0  0  0  0
    2.1662    0.6816    2.0423 H   0  0  0  0  0  0  0  0  0  0  0  0
    1.5767    2.8599    1.1832 H   0  0  0  0  0  0  0  0  0  0  0  0
    2.2640    1.8720   -0.0990 H   0  0  0  0  0  0  0  0  0  0  0  0
    0.3935    3.1709   -0.9370 H   0  0  0  0  0  0  0  0  0  0  0  0
    0.0635    1.4522   -1.0586 H   0  0  0  0  0  0  0  0  0  0  0  0
   -1.9284    2.6331   -0.3518 H   0  0  0  0  0  0  0  0  0  0  0  0
   -1.3995    1.5281    0.9034 H   0  0  0  0  0  0  0  0  0  0  0  0
   -2.1486    3.6094    1.8883 H   0  0  0  0  0  0  0  0  0  0  0  0
   -0.4418    3.3613    2.2097 H   0  0  0  0  0  0  0  0  0  0  0  0
   -0.8683    5.6900    1.6911 H   0  0  0  0  0  0  0  0  0  0  0  0
    0.1915    4.9760    0.4896 H   0  0  0  0  0  0  0  0  0  0  0  0
   -1.4125    6.4459   -0.5768 H   0  0  0  0  0  0  0  0  0  0  0  0
   -1.6345    4.7931   -1.1212 H   0  0  0  0  0  0  0  0  0  0  0  0
   -3.7850    5.8567   -0.7874 H   0  0  0  0  0  0  0  0  0  0  0  0
   -3.5898    4.5042    0.3123 H   0  0  0  0  0  0  0  0  0  0  0  0
   -4.6620    6.3500    1.4544 H   0  0  0  0  0  0  0  0  0  0  0  0
   -3.1064    5.9977    2.1829 H   0  0  0  0  0  0  0  0  0  0  0  0
   -3.4452    8.3940    2.0651 H   0  0  0  0  0  0  0  0  0  0  0  0
   -2.0689    7.9142    1.0903 H   0  0  0  0  0  0  0  0  0  0  0  0
   -3.3452    9.6190   -0.0650 H   0  0  0  0  0  0  0  0  0  0  0  0
   -3.3510    8.1187   -0.9712 H   0  0  0  0  0  0  0  0  0  0  0  0
   -5.5403    9.1477   -1.0601 H   0  0  0  0  0  0  0  0  0  0  0  0
   -5.6166    7.5918   -0.2587 H   0  0  0  0  0  0  0  0  0  0  0  0
   -7.0428    9.1920    0.8958 H   0  0  0  0  0  0  0  0  0  0  0  0
   -5.7541    8.6144    1.9379 H   0  0  0  0  0  0  0  0  0  0  0  0
   -6.0470   10.9682    2.3189 H   0  0  0  0  0  0  0  0  0  0  0  0
   -4.4775   10.7098    1.5653 H   0  0  0  0  0  0  0  0  0  0  0  0
   -5.5482   12.6669    0.5819 H   0  0  0  0  0  0  0  0  0  0  0  0
   -5.4038   11.3888   -0.6422 H   0  0  0  0  0  0  0  0  0  0  0  0
   -7.9234   12.9347    1.7235 H   0  0  0  0  0  0  0  0  0  0  0  0
  -10.4180   12.4383    0.7058 H   0  0  0  0  0  0  0  0  0  0  0  0
   -7.5586   10.5210   -1.6804 H   0  0  0  0  0  0  0  0  0  0  0  0
  -11.3008   11.1506   -1.1951 H   0  0  0  0  0  0  0  0  0  0  0  0
  -10.2211   11.2056   -2.6022 H   0  0  0  0  0  0  0  0  0  0  0  0
   -9.4551    8.2262    1.0391 H   0  0  0  0  0  0  0  0  0  0  0  0
  -11.8566    9.0829   -3.1289 H   0  0  0  0  0  0  0  0  0  0  0  0
  -10.2118    8.9544   -3.7464 H   0  0  0  0  0  0  0  0  0  0  0  0
  -10.9109    7.6155   -2.8215 H   0  0  0  0  0  0  0  0  0  0  0  0
  1  2  1  0  0  0  0
  2  3  1  0  0  0  0
  3  4  1  0  0  0  0
  4  5  1  0  0  0  0
  5  6  1  0  0  0  0
  6  7  1  0  0  0  0
  7  8  1  0  0  0  0
  8  9  1  0  0  0  0
  9 10  1  0  0  0  0
 10 11  1  0  0  0  0
 11 12  1  0  0  0  0
 12 13  1  0  0  0  0
 13 14  1  0  0  0  0
 14 15  1  0  0  0  0
 15 16  1  0  0  0  0
 16 17  1  0  0  0  0
 17 18  4  0  0  0  0
 18 19  2  0  0  0  0
 19 20  4  0  0  0  0
 17 21  4  0  0  0  0
 20 21  4  0  0  0  0
 20 22  1  0  0  0  0
 22 23  1  0  0  0  0
 23 24  2  0  0  0  0
 24 25  1  0  0  0  0
 23 26  1  0  0  0  0
  1 27  1  0  0  0  0
  1 28  1  0  0  0  0
  1 29  1  0  0  0  0
  2 30  1  0  0  0  0
  2 31  1  0  0  0  0
  3 32  1  0  0  0  0
  3 33  1  0  0  0  0
  4 34  1  0  0  0  0
  4 35  1  0  0  0  0
  5 36  1  0  0  0  0
  5 37  1  0  0  0  0
  6 38  1  0  0  0  0
  6 39  1  0  0  0  0
  7 40  1  0  0  0  0
  7 41  1  0  0  0  0
  8 42  1  0  0  0  0
  8 43  1  0  0  0  0
  9 44  1  0  0  0  0
  9 45  1  0  0  0  0
 10 46  1  0  0  0  0
 10 47  1  0  0  0  0
 11 48  1  0  0  0  0
 11 49  1  0  0  0  0
 12 50  1  0  0  0  0
 12 51  1  0  0  0  0
 13 52  1  0  0  0  0
 13 53  1  0  0  0  0
 14 54  1  0  0  0  0
 14 55  1  0  0  0  0
 15 56  1  0  0  0  0
 15 57  1  0  0  0  0
 16 58  1  0  0  0  0
 16 59  1  0  0  0  0
 18 60  1  0  0  0  0
 19 61  1  0  0  0  0
 21 62  1  0  0  0  0
 22 63  1  0  0  0  0
 22 64  1  0  0  0  0
 25 65  1  0  0  0  0
 26 66  1  0  0  0  0
 26 67  1  0  0  0  0
 26 68  1  0  0  0  0
M  CHG  1   1   1
M  END
