 xtb: 6.7.1 (edcfbbe)
          12202407023D

 24 24  0     0  0            999 V2000
    0.8460   -0.2725    0.0408 O   0  0  0  0  0  0  0  0  0  0  0  0
    0.3510    0.3476   -1.0543 C   0  0  0  0  0  0  0  0  0  0  0  0
    0.7525   -0.1126   -2.3114 C   0  0  0  0  0  0  0  0  0  0  0  0
    0.3286    0.5245   -3.4234 N   0  0  0  0  0  0  0  0  0  0  0  0
   -0.4768    1.5938   -3.3383 C   0  0  0  0  0  0  0  0  0  0  0  0
   -0.9396    2.0597   -2.1378 C   0  0  0  0  0  0  0  0  0  0  0  0
   -0.5567    1.4247   -0.9535 C   0  0  0  0  0  0  0  0  0  0  0  0
   -1.0439    1.8796    0.1954 O   0  0  0  0  0  0  0  0  0  0  0  0
    0.7401    0.0782   -4.7409 C   0  0  0  0  0  0  0  0  0  0  0  0
    1.6447   -1.3517   -2.3965 C   0  0  0  0  0  0  0  0  0  0  0  0
    3.0858   -0.9766   -2.0329 C   0  0  0  0  0  0  0  0  0  0  0  0
    1.1266   -2.3844   -1.6183 O   0  0  0  0  0  0  0  0  0  0  0  0
    0.7272    0.2422    0.8508 H   0  0  0  0  0  0  0  0  0  0  0  0
   -0.7663    2.0723   -4.2604 H   0  0  0  0  0  0  0  0  0  0  0  0
   -1.6063    2.9041   -2.0844 H   0  0  0  0  0  0  0  0  0  0  0  0
   -0.9310    1.2868    0.9528 H   0  0  0  0  0  0  0  0  0  0  0  0
    0.3476   -0.9184   -4.9465 H   0  0  0  0  0  0  0  0  0  0  0  0
    0.3521    0.7601   -5.4938 H   0  0  0  0  0  0  0  0  0  0  0  0
    1.8263    0.0567   -4.8205 H   0  0  0  0  0  0  0  0  0  0  0  0
    1.6221   -1.7500   -3.4132 H   0  0  0  0  0  0  0  0  0  0  0  0
    3.1405   -0.6110   -1.0109 H   0  0  0  0  0  0  0  0  0  0  0  0
    3.7097   -1.8619   -2.1178 H   0  0  0  0  0  0  0  0  0  0  0  0
    3.4709   -0.2125   -2.7025 H   0  0  0  0  0  0  0  0  0  0  0  0
    1.3324   -2.2415   -0.6854 H   0  0  0  0  0  0  0  0  0  0  0  0
  1  2  1  0  0  0  0
  2  3  4  0  0  0  0
  3  4  4  0  0  0  0
  4  5  4  0  0  0  0
  5  6  4  0  0  0  0
  2  7  4  0  0  0  0
  6  7  4  0  0  0  0
  7  8  1  0  0  0  0
  4  9  1  0  0  0  0
  3 10  1  0  0  0  0
 10 11  1  0  0  0  0
 10 12  1  0  0  0  0
  1 13  1  0  0  0  0
  5 14  1  0  0  0  0
  6 15  1  0  0  0  0
  8 16  1  0  0  0  0
  9 17  1  0  0  0  0
  9 18  1  0  0  0  0
  9 19  1  0  0  0  0
 10 20  1  0  0  0  0
 11 21  1  0  0  0  0
 11 22  1  0  0  0  0
 11 23  1  0  0  0  0
 12 24  1  0  0  0  0
M  CHG  1   1   1
M  END
