36

C          0.76047        0.45462        0.24870
C          0.75308        0.68588       -1.25445
C          1.41285       -0.44456       -2.04756
C          0.75113       -1.81996       -1.91487
C         -0.73266       -1.89645       -2.29176
C         -1.15558       -1.34851       -3.65952
N         -0.93985       -2.27788       -4.86545
C         -1.56992       -3.68938       -4.70248
C         -3.07463       -3.70222       -4.38470
O         -3.83149       -3.20251       -5.48040
C         -1.55902       -1.57545       -6.09335
C          0.54198       -2.46501       -5.18337
H          0.13708       -0.40017        0.52656
H          0.36579        1.33497        0.76608
H          1.77685        0.27552        0.61351
H         -0.27527        0.84562       -1.59586
H          1.29640        1.61523       -1.46447
H          1.45167       -0.15593       -3.10376
H          2.45835       -0.53591       -1.72624
H          1.32678       -2.54007       -2.50132
H          0.85286       -2.16270       -0.87736
H         -1.07710       -2.92629       -2.15641
H         -1.28535       -1.32052       -1.53747
H         -2.23145       -1.13995       -3.62600
H         -0.66027       -0.39961       -3.89067
H         -1.38586       -4.21301       -5.64847
H         -1.01091       -4.20177       -3.91317
H         -3.38801       -4.73673       -4.20859
H         -3.31378       -3.12033       -3.49111
H         -4.77311       -3.38486       -5.29469
H         -0.93824       -0.70551       -6.33185
H         -1.56555       -2.27629       -6.93298
H         -2.56666       -1.23463       -5.84724
H          1.03284       -1.48841       -5.16518
H          0.97968       -3.14412       -4.45130
H          0.62795       -2.91278       -6.17887
