 xtb: 6.7.1 (edcfbbe)
          12202407023D

 45 47  0     0  0            999 V2000
    0.8528   -0.6395   -0.0469 C   0  0  0  0  0  0  0  0  0  0  0  0
    0.4090   -1.1849    1.1890 O   0  0  0  0  0  0  0  0  0  0  0  0
    1.3732   -1.5449    2.0458 C   0  0  0  0  0  0  0  0  0  0  0  0
    2.5503   -1.4200    1.8199 O   0  0  0  0  0  0  0  0  0  0  0  0
    0.8463   -2.1100    3.3063 C   0  0  0  0  0  0  0  0  0  0  0  0
   -0.4559   -2.2632    3.5625 C   0  0  0  0  0  0  0  0  0  0  0  0
   -1.0314   -2.8270    4.7718 C   0  0  0  0  0  0  0  0  0  0  0  0
   -2.4009   -3.1025    4.8035 C   0  0  0  0  0  0  0  0  0  0  0  0
   -2.9921   -3.6546    5.9229 C   0  0  0  0  0  0  0  0  0  0  0  0
   -2.2261   -3.9493    7.0424 C   0  0  0  0  0  0  0  0  0  0  0  0
   -0.8649   -3.6633    7.0301 C   0  0  0  0  0  0  0  0  0  0  0  0
   -0.2748   -3.1122    5.9120 C   0  0  0  0  0  0  0  0  0  0  0  0
   -2.8576   -4.5463    8.2803 C   0  0  0  0  0  0  0  0  0  0  0  0
   -2.9227   -3.5410    9.3218 N   0  0  0  0  0  0  0  0  0  0  0  0
   -3.7747   -2.4730    9.3287 C   0  0  0  0  0  0  0  0  0  0  0  0
   -3.4735   -1.7158   10.4165 C   0  0  0  0  0  0  0  0  0  0  0  0
   -2.4355   -2.3322   11.0592 N   0  0  0  0  0  0  0  0  0  0  0  0
   -2.1148   -3.4283   10.3619 C   0  0  0  0  0  0  0  0  0  0  0  0
   -1.6590   -1.8764   12.2247 C   0  0  0  0  0  0  0  0  0  0  0  0
   -0.5089   -2.1976   12.2521 O   0  0  0  0  0  0  0  0  0  0  0  0
   -2.3929   -1.0872   13.1993 C   0  0  0  0  0  0  0  0  0  0  0  0
   -1.6509   -0.2014   13.9922 C   0  0  0  0  0  0  0  0  0  0  0  0
   -2.2816    0.5585   14.9561 C   0  0  0  0  0  0  0  0  0  0  0  0
   -3.6481    0.4273   15.1581 C   0  0  0  0  0  0  0  0  0  0  0  0
   -4.3841   -0.4730   14.3998 C   0  0  0  0  0  0  0  0  0  0  0  0
   -3.7681   -1.2278   13.4213 C   0  0  0  0  0  0  0  0  0  0  0  0
   -0.0407   -0.3262   -0.5791 H   0  0  0  0  0  0  0  0  0  0  0  0
    1.3953   -1.3936   -0.6194 H   0  0  0  0  0  0  0  0  0  0  0  0
    1.5154    0.2095    0.1291 H   0  0  0  0  0  0  0  0  0  0  0  0
    1.6230   -2.4014    3.9972 H   0  0  0  0  0  0  0  0  0  0  0  0
   -1.1655   -1.9640    2.8030 H   0  0  0  0  0  0  0  0  0  0  0  0
   -3.0045   -2.8880    3.9350 H   0  0  0  0  0  0  0  0  0  0  0  0
   -4.0503   -3.8718    5.9174 H   0  0  0  0  0  0  0  0  0  0  0  0
   -0.2600   -3.8832    7.8984 H   0  0  0  0  0  0  0  0  0  0  0  0
    0.7813   -2.8992    5.9251 H   0  0  0  0  0  0  0  0  0  0  0  0
   -3.8709   -4.8900    8.0614 H   0  0  0  0  0  0  0  0  0  0  0  0
   -2.2647   -5.3858    8.6492 H   0  0  0  0  0  0  0  0  0  0  0  0
   -4.5175   -2.3284    8.5708 H   0  0  0  0  0  0  0  0  0  0  0  0
   -3.8953   -0.7919   10.7556 H   0  0  0  0  0  0  0  0  0  0  0  0
   -1.3250   -4.1020   10.6362 H   0  0  0  0  0  0  0  0  0  0  0  0
   -0.5886   -0.1175   13.8227 H   0  0  0  0  0  0  0  0  0  0  0  0
   -1.7091    1.2482   15.5558 H   0  0  0  0  0  0  0  0  0  0  0  0
   -4.1401    1.0168   15.9160 H   0  0  0  0  0  0  0  0  0  0  0  0
   -5.4414   -0.5910   14.5788 H   0  0  0  0  0  0  0  0  0  0  0  0
   -4.3447   -1.9557   12.8695 H   0  0  0  0  0  0  0  0  0  0  0  0
  1  2  1  0  0  0  0
  2  3  1  0  0  0  0
  3  4  2  0  0  0  0
  3  5  1  0  0  0  0
  5  6  2  0  0  0  0
  6  7  1  0  0  0  0
  7  8  4  0  0  0  0
  8  9  4  0  0  0  0
  9 10  4  0  0  0  0
 10 11  4  0  0  0  0
  7 12  4  0  0  0  0
 11 12  4  0  0  0  0
 10 13  1  0  0  0  0
 13 14  1  0  0  0  0
 14 15  4  0  0  0  0
 15 16  2  0  0  0  0
 16 17  4  0  0  0  0
 14 18  4  0  0  0  0
 17 18  4  0  0  0  0
 17 19  1  0  0  0  0
 19 20  2  0  0  0  0
 19 21  1  0  0  0  0
 21 22  4  0  0  0  0
 22 23  4  0  0  0  0
 23 24  4  0  0  0  0
 24 25  4  0  0  0  0
 21 26  4  0  0  0  0
 25 26  4  0  0  0  0
  1 27  1  0  0  0  0
  1 28  1  0  0  0  0
  1 29  1  0  0  0  0
  5 30  1  0  0  0  0
  6 31  1  0  0  0  0
  8 32  1  0  0  0  0
  9 33  1  0  0  0  0
 11 34  1  0  0  0  0
 12 35  1  0  0  0  0
 13 36  1  0  0  0  0
 13 37  1  0  0  0  0
 15 38  1  0  0  0  0
 16 39  1  0  0  0  0
 18 40  1  0  0  0  0
 22 41  1  0  0  0  0
 23 42  1  0  0  0  0
 24 43  1  0  0  0  0
 25 44  1  0  0  0  0
 26 45  1  0  0  0  0
M  CHG  1   1   1
M  END
