49

C          1.17279        1.01232        2.24155
C          0.23874        2.16891        1.92697
N          0.29607        2.63661        0.46585
C         -0.04952        1.51177       -0.49192
O         -1.19502        0.79026       -0.09022
C         -1.84657        0.09065       -1.16590
C         -2.13535       -1.33281       -0.67495
C         -3.22996       -1.44411        0.39348
C         -2.75838       -1.00071        1.78070
C         -4.49433       -0.70193       -0.04198
C         -4.23618        0.73003       -0.50358
C         -3.10377        0.90859       -1.53955
C         -3.58718        0.79027       -3.01599
C         -2.55800        1.39743       -3.98220
C         -3.95728       -0.60687       -3.50434
C         -0.75368        3.73327        0.29458
C          1.65711        3.20836        0.11587
H          0.93411        0.11819        1.65947
H          1.07304        0.74444        3.29911
H          2.22091        1.27272        2.07267
H         -0.79795        1.89027        2.14827
H          0.49367        3.03564        2.54840
H         -0.18413        1.96583       -1.48214
H          0.80632        0.82861       -0.53761
H         -1.15692        0.01365       -2.01379
H         -1.20979       -1.77471       -0.28379
H         -2.43045       -1.95313       -1.52770
H         -3.48461       -2.50876        0.48635
H         -2.59383        0.07732        1.84645
H         -3.50845       -1.26073        2.53574
H         -1.82632       -1.50610        2.05509
H         -4.97622       -1.26690       -0.84477
H         -5.22030       -0.68796        0.78062
H         -3.98029        1.32781        0.38159
H         -5.16966        1.16106       -0.88489
H         -2.82576        1.96942       -1.43773
H         -4.49056        1.40943       -3.10665
H         -1.65221        0.78734       -4.05101
H         -2.97949        1.47588       -4.99056
H         -2.26919        2.40594       -3.66827
H         -4.75819       -1.04748       -2.90996
H         -4.32634       -0.56025       -4.53579
H         -3.09753       -1.28140       -3.50386
H         -0.50482        4.55776        0.96961
H         -0.73403        4.07880       -0.74377
H         -1.73802        3.32403        0.54086
H          1.89714        3.99964        0.83207
H          2.40355        2.41125        0.15967
H          1.61247        3.61524       -0.89910
