 xtb: 6.7.1 (edcfbbe)
          12202407023D

 47 46  0     0  0            999 V2000
    0.5824   -0.0964   -0.6321 C   0  0  0  0  0  0  0  0  0  0  0  0
    0.4465   -0.6527    0.7800 C   0  0  0  0  0  0  0  0  0  0  0  0
    1.3692    0.0338    1.7887 C   0  0  0  0  0  0  0  0  0  0  0  0
    1.1389    1.5379    1.9624 C   0  0  0  0  0  0  0  0  0  0  0  0
   -0.2960    1.9434    2.3254 C   0  0  0  0  0  0  0  0  0  0  0  0
   -0.8804    1.2901    3.5833 C   0  0  0  0  0  0  0  0  0  0  0  0
   -0.7619    2.0485    4.8687 N   0  0  0  0  0  0  0  0  0  0  0  0
   -1.6116    3.2812    4.8698 C   0  0  0  0  0  0  0  0  0  0  0  0
   -3.1323    3.0867    4.8855 C   0  0  0  0  0  0  0  0  0  0  0  0
   -3.7991    3.1159    6.2675 C   0  0  0  0  0  0  0  0  0  0  0  0
   -3.5383    4.3794    7.0928 C   0  0  0  0  0  0  0  0  0  0  0  0
   -3.8986    5.6945    6.3994 C   0  0  0  0  0  0  0  0  0  0  0  0
   -5.3745    5.7947    6.0337 C   0  0  0  0  0  0  0  0  0  0  0  0
   -1.1577    1.1483    5.9674 C   0  0  0  0  0  0  0  0  0  0  0  0
    0.6358    2.4578    5.0991 C   0  0  0  0  0  0  0  0  0  0  0  0
    0.2369    0.9328   -0.6934 H   0  0  0  0  0  0  0  0  0  0  0  0
   -0.0087   -0.6898   -1.3244 H   0  0  0  0  0  0  0  0  0  0  0  0
    1.6197   -0.1315   -0.9551 H   0  0  0  0  0  0  0  0  0  0  0  0
   -0.5939   -0.5805    1.1056 H   0  0  0  0  0  0  0  0  0  0  0  0
    0.7038   -1.7134    0.7634 H   0  0  0  0  0  0  0  0  0  0  0  0
    1.2829   -0.4787    2.7513 H   0  0  0  0  0  0  0  0  0  0  0  0
    2.4006   -0.0999    1.4578 H   0  0  0  0  0  0  0  0  0  0  0  0
    1.8508    1.9091    2.7010 H   0  0  0  0  0  0  0  0  0  0  0  0
    1.3790    2.0327    1.0211 H   0  0  0  0  0  0  0  0  0  0  0  0
   -0.3468    3.0310    2.3862 H   0  0  0  0  0  0  0  0  0  0  0  0
   -0.9382    1.6563    1.4925 H   0  0  0  0  0  0  0  0  0  0  0  0
   -1.9435    1.1049    3.4268 H   0  0  0  0  0  0  0  0  0  0  0  0
   -0.3958    0.3241    3.7310 H   0  0  0  0  0  0  0  0  0  0  0  0
   -1.3269    3.8703    5.7426 H   0  0  0  0  0  0  0  0  0  0  0  0
   -1.3351    3.8519    3.9827 H   0  0  0  0  0  0  0  0  0  0  0  0
   -3.5610    3.8985    4.2977 H   0  0  0  0  0  0  0  0  0  0  0  0
   -3.4168    2.1634    4.3799 H   0  0  0  0  0  0  0  0  0  0  0  0
   -4.8733    3.0297    6.1022 H   0  0  0  0  0  0  0  0  0  0  0  0
   -3.5044    2.2515    6.8642 H   0  0  0  0  0  0  0  0  0  0  0  0
   -4.1310    4.2981    8.0056 H   0  0  0  0  0  0  0  0  0  0  0  0
   -2.4908    4.4209    7.4054 H   0  0  0  0  0  0  0  0  0  0  0  0
   -3.6526    6.5086    7.0836 H   0  0  0  0  0  0  0  0  0  0  0  0
   -3.2874    5.8326    5.5043 H   0  0  0  0  0  0  0  0  0  0  0  0
   -5.9945    5.6253    6.9104 H   0  0  0  0  0  0  0  0  0  0  0  0
   -5.5959    6.7861    5.6481 H   0  0  0  0  0  0  0  0  0  0  0  0
   -5.6497    5.0696    5.2716 H   0  0  0  0  0  0  0  0  0  0  0  0
   -0.4475    0.3270    6.0510 H   0  0  0  0  0  0  0  0  0  0  0  0
   -1.1692    1.6950    6.9083 H   0  0  0  0  0  0  0  0  0  0  0  0
   -2.1458    0.7334    5.7849 H   0  0  0  0  0  0  0  0  0  0  0  0
    1.2932    1.5946    5.0151 H   0  0  0  0  0  0  0  0  0  0  0  0
    0.9393    3.2082    4.3735 H   0  0  0  0  0  0  0  0  0  0  0  0
    0.7413    2.8795    6.0976 H   0  0  0  0  0  0  0  0  0  0  0  0
  1  2  1  0  0  0  0
  2  3  1  0  0  0  0
  3  4  1  0  0  0  0
  4  5  1  0  0  0  0
  5  6  1  0  0  0  0
  6  7  1  0  0  0  0
  7  8  1  0  0  0  0
  8  9  1  0  0  0  0
  9 10  1  0  0  0  0
 10 11  1  0  0  0  0
 11 12  1  0  0  0  0
 12 13  1  0  0  0  0
  7 14  1  0  0  0  0
  7 15  1  0  0  0  0
  1 16  1  0  0  0  0
  1 17  1  0  0  0  0
  1 18  1  0  0  0  0
  2 19  1  0  0  0  0
  2 20  1  0  0  0  0
  3 21  1  0  0  0  0
  3 22  1  0  0  0  0
  4 23  1  0  0  0  0
  4 24  1  0  0  0  0
  5 25  1  0  0  0  0
  5 26  1  0  0  0  0
  6 27  1  0  0  0  0
  6 28  1  0  0  0  0
  8 29  1  0  0  0  0
  8 30  1  0  0  0  0
  9 31  1  0  0  0  0
  9 32  1  0  0  0  0
 10 33  1  0  0  0  0
 10 34  1  0  0  0  0
 11 35  1  0  0  0  0
 11 36  1  0  0  0  0
 12 37  1  0  0  0  0
 12 38  1  0  0  0  0
 13 39  1  0  0  0  0
 13 40  1  0  0  0  0
 13 41  1  0  0  0  0
 14 42  1  0  0  0  0
 14 43  1  0  0  0  0
 14 44  1  0  0  0  0
 15 45  1  0  0  0  0
 15 46  1  0  0  0  0
 15 47  1  0  0  0  0
M  CHG  1   1   1
M  END
