39

C          0.74259        0.48657       -0.95032
C          0.24004        1.15799        0.31467
O          1.01923        2.27308        0.73461
C          2.39125        2.03720        1.04743
C          2.60543        1.62220        2.50725
N          2.27460        0.21264        2.76348
C          1.16257       -0.18796        3.39662
N          1.13730       -1.52935        3.41626
C          2.30069       -2.02028        2.82840
C          3.03611       -0.89861        2.41935
C          4.27017       -1.00919        1.78322
C          4.73696       -2.31202        1.56605
C          3.99777       -3.43970        1.97086
C          2.75785       -3.31908        2.61438
C          0.01609       -2.31326        3.92520
C         -0.30845       -1.85062        5.31066
C         -1.45304       -1.23937        5.65821
C         -1.77847       -0.80460        7.05267
H          0.97488        1.22547       -1.72268
H         -0.00932       -0.20945       -1.33478
H          1.65252       -0.08985       -0.75781
H         -0.76673        1.54589        0.12468
H          0.14265        0.43318        1.12394
H          2.85490        1.33639        0.34899
H          2.89462        2.99979        0.90320
H          3.65419        1.76815        2.78958
H          1.98919        2.23974        3.17057
H          0.39370        0.46746        3.79044
H          4.83715       -0.14107        1.47156
H          5.69745       -2.45919        1.07008
H          4.40359       -4.43398        1.77830
H          2.19405       -4.18956        2.92511
H         -0.82485       -2.17727        3.23606
H          0.26808       -3.37698        3.94609
H          0.44218       -2.05923        6.07103
H         -2.22527       -1.04523        4.91497
H         -1.94546        0.27658        7.07491
H         -2.69196       -1.30171        7.39298
H         -0.97608       -1.04212        7.75793
