33

C          1.11029        0.14997       -0.09066
N          0.52826       -1.21155       -0.50923
C          0.97915       -2.33159        0.51602
C          0.36949       -2.12066        1.91887
C         -0.90749       -2.90113        2.24097
C         -0.63407       -4.31176        2.75687
C         -0.18375       -5.30346        1.69247
C          1.05600       -4.88388        0.90857
C          0.78639       -3.74238       -0.07429
C         -0.98651       -1.07795       -0.62155
C          1.08799       -1.49956       -1.91188
H          0.65109        0.47204        0.84518
H          0.87905        0.88025       -0.87269
H          2.19296        0.04299        0.02063
H          2.06158       -2.16859        0.61078
H          1.13433       -2.38928        2.66043
H          0.17199       -1.06274        2.10861
H         -1.59663       -2.92859        1.39153
H         -1.42947       -2.36141        3.04187
H         -1.55555       -4.69879        3.20987
H          0.10872       -4.27626        3.56336
H         -1.01173       -5.49581        0.99879
H          0.02633       -6.25979        2.18767
H          1.37944       -5.75606        0.32565
H          1.88441       -4.63923        1.58325
H         -0.20942       -3.86313       -0.51356
H          1.50195       -3.86993       -0.89625
H         -1.20925       -0.32435       -1.38367
H         -1.40749       -2.04101       -0.91758
H         -1.38835       -0.75185        0.34039
H          0.88549       -0.63538       -2.55257
H          2.16570       -1.66417       -1.82463
H          0.58195       -2.37659       -2.32353
