16

C          1.06520       -0.08029        0.04560
C          0.29926       -0.63878        1.22900
N          0.77239       -0.06174        2.49129
C          0.52767        1.19559        2.89394
N          1.11321        1.34536        4.08517
C          1.73676        0.18125        4.46762
C          1.52438       -0.71630        3.45970
H          0.92812        1.00304       -0.03187
H          0.71859       -0.53739       -0.88593
H          2.13757       -0.27330        0.14979
H         -0.76916       -0.41608        1.13582
H          0.41176       -1.72753        1.27275
H         -0.03497        1.94966        2.35550
H          1.09256        2.20682        4.62619
H          2.25018        0.14910        5.41248
H          1.80972       -1.74274        3.30244
