 xtb: 6.7.1 (edcfbbe)
          12202407023D

 48 48  0     0  0            999 V2000
    1.0988    0.4333   -0.3281 C   0  0  0  0  0  0  0  0  0  0  0  0
    1.0169   -0.5256   -1.5097 C   0  0  0  0  0  0  0  0  0  0  0  0
    1.3368   -1.9738   -1.1364 C   0  0  0  0  0  0  0  0  0  0  0  0
    0.3943   -2.5989   -0.1057 C   0  0  0  0  0  0  0  0  0  0  0  0
   -1.0801   -2.6301   -0.5124 C   0  0  0  0  0  0  0  0  0  0  0  0
   -1.3798   -3.4011   -1.7996 C   0  0  0  0  0  0  0  0  0  0  0  0
   -0.9690   -4.8749   -1.7817 C   0  0  0  0  0  0  0  0  0  0  0  0
   -1.5959   -5.7067   -0.6610 C   0  0  0  0  0  0  0  0  0  0  0  0
   -3.1262   -5.7191   -0.6420 C   0  0  0  0  0  0  0  0  0  0  0  0
   -3.7840   -6.2516   -1.9177 C   0  0  0  0  0  0  0  0  0  0  0  0
   -3.4007   -7.6793   -2.2981 C   0  0  0  0  0  0  0  0  0  0  0  0
   -3.8115   -8.7483   -1.2549 C   0  0  0  0  0  0  0  0  0  0  0  0
   -5.2836   -8.8692   -1.1958 C   0  0  0  0  0  0  0  0  0  0  0  0
   -5.9762   -9.7016   -2.0877 C   0  0  0  0  0  0  0  0  0  0  0  0
   -7.3470   -9.7667   -2.0527 C   0  0  0  0  0  0  0  0  0  0  0  0
   -8.0352   -9.0295   -1.1686 N   0  0  0  0  0  0  0  0  0  0  0  0
   -7.4200   -8.2153   -0.2993 C   0  0  0  0  0  0  0  0  0  0  0  0
   -6.0501   -8.1175   -0.2927 C   0  0  0  0  0  0  0  0  0  0  0  0
    0.3221    0.2242    0.4035 H   0  0  0  0  0  0  0  0  0  0  0  0
    0.9750    1.4592   -0.6670 H   0  0  0  0  0  0  0  0  0  0  0  0
    2.0661    0.3501    0.1629 H   0  0  0  0  0  0  0  0  0  0  0  0
    0.0236   -0.4668   -1.9588 H   0  0  0  0  0  0  0  0  0  0  0  0
    1.7340   -0.2077   -2.2704 H   0  0  0  0  0  0  0  0  0  0  0  0
    1.3331   -2.5786   -2.0459 H   0  0  0  0  0  0  0  0  0  0  0  0
    2.3503   -2.0104   -0.7291 H   0  0  0  0  0  0  0  0  0  0  0  0
    0.7367   -3.6161    0.0978 H   0  0  0  0  0  0  0  0  0  0  0  0
    0.4752   -2.0443    0.8309 H   0  0  0  0  0  0  0  0  0  0  0  0
   -1.6530   -3.0615    0.3121 H   0  0  0  0  0  0  0  0  0  0  0  0
   -1.4355   -1.6064   -0.6422 H   0  0  0  0  0  0  0  0  0  0  0  0
   -2.4506   -3.3234   -2.0049 H   0  0  0  0  0  0  0  0  0  0  0  0
   -0.8636   -2.9186   -2.6311 H   0  0  0  0  0  0  0  0  0  0  0  0
   -1.2220   -5.3140   -2.7499 H   0  0  0  0  0  0  0  0  0  0  0  0
    0.1152   -4.9402   -1.6791 H   0  0  0  0  0  0  0  0  0  0  0  0
   -1.2206   -6.7300   -0.7383 H   0  0  0  0  0  0  0  0  0  0  0  0
   -1.2546   -5.3189    0.2999 H   0  0  0  0  0  0  0  0  0  0  0  0
   -3.4497   -6.3076    0.2209 H   0  0  0  0  0  0  0  0  0  0  0  0
   -3.4862   -4.7022   -0.4817 H   0  0  0  0  0  0  0  0  0  0  0  0
   -4.8709   -6.1764   -1.8129 H   0  0  0  0  0  0  0  0  0  0  0  0
   -3.5002   -5.6052   -2.7490 H   0  0  0  0  0  0  0  0  0  0  0  0
   -3.8587   -7.9294   -3.2573 H   0  0  0  0  0  0  0  0  0  0  0  0
   -2.3206   -7.7429   -2.4203 H   0  0  0  0  0  0  0  0  0  0  0  0
   -3.3729   -9.6985   -1.5611 H   0  0  0  0  0  0  0  0  0  0  0  0
   -3.4069   -8.4641   -0.2848 H   0  0  0  0  0  0  0  0  0  0  0  0
   -5.4326  -10.2996   -2.8023 H   0  0  0  0  0  0  0  0  0  0  0  0
   -7.9100  -10.4016   -2.7200 H   0  0  0  0  0  0  0  0  0  0  0  0
   -9.0494   -9.0925   -1.1545 H   0  0  0  0  0  0  0  0  0  0  0  0
   -8.0391   -7.6525    0.3831 H   0  0  0  0  0  0  0  0  0  0  0  0
   -5.5671   -7.4639    0.4162 H   0  0  0  0  0  0  0  0  0  0  0  0
  1  2  1  0  0  0  0
  2  3  1  0  0  0  0
  3  4  1  0  0  0  0
  4  5  1  0  0  0  0
  5  6  1  0  0  0  0
  6  7  1  0  0  0  0
  7  8  1  0  0  0  0
  8  9  1  0  0  0  0
  9 10  1  0  0  0  0
 10 11  1  0  0  0  0
 11 12  1  0  0  0  0
 12 13  1  0  0  0  0
 13 14  4  0  0  0  0
 14 15  2  0  0  0  0
 15 16  4  0  0  0  0
 16 17  4  0  0  0  0
 13 18  4  0  0  0  0
 17 18  2  0  0  0  0
  1 19  1  0  0  0  0
  1 20  1  0  0  0  0
  1 21  1  0  0  0  0
  2 22  1  0  0  0  0
  2 23  1  0  0  0  0
  3 24  1  0  0  0  0
  3 25  1  0  0  0  0
  4 26  1  0  0  0  0
  4 27  1  0  0  0  0
  5 28  1  0  0  0  0
  5 29  1  0  0  0  0
  6 30  1  0  0  0  0
  6 31  1  0  0  0  0
  7 32  1  0  0  0  0
  7 33  1  0  0  0  0
  8 34  1  0  0  0  0
  8 35  1  0  0  0  0
  9 36  1  0  0  0  0
  9 37  1  0  0  0  0
 10 38  1  0  0  0  0
 10 39  1  0  0  0  0
 11 40  1  0  0  0  0
 11 41  1  0  0  0  0
 12 42  1  0  0  0  0
 12 43  1  0  0  0  0
 14 44  1  0  0  0  0
 15 45  1  0  0  0  0
 16 46  1  0  0  0  0
 17 47  1  0  0  0  0
 18 48  1  0  0  0  0
M  CHG  1   1   1
M  END
