34

C          0.49772        1.05237        0.62425
C          0.26263       -0.10965       -0.32937
C          0.97883       -1.38796        0.11175
C          0.31969       -2.12081        1.28638
C         -1.02302       -2.79231        0.97304
C         -1.03358       -3.80333       -0.17653
O         -0.44786       -5.05778        0.16917
C          0.93362       -5.20142       -0.11898
N          1.18089       -5.27805       -1.57181
C          2.12764       -4.49391       -2.13510
C          2.36820       -4.54547       -3.50240
C          1.63469       -5.42420       -4.28814
C          0.67934       -6.23793       -3.69231
C          0.46858       -6.15137       -2.32090
H          0.10014        0.84401        1.62123
H          0.00667        1.95501        0.24716
H          1.56746        1.26757        0.71795
H         -0.81188       -0.28205       -0.44813
H          0.64391        0.17865       -1.31657
H          1.05500       -2.05690       -0.74958
H          2.01168       -1.14195        0.38797
H          1.01533       -2.87287        1.67192
H          0.16935       -1.42024        2.11611
H         -1.36386       -3.29656        1.88603
H         -1.76018       -2.01177        0.75186
H         -2.08387       -4.02843       -0.39697
H         -0.61437       -3.40124       -1.10303
H          1.53125       -4.40187        0.31876
H          1.27954       -6.15412        0.29719
H          2.68571       -3.82240       -1.48835
H          3.12324       -3.90465       -3.95317
H          1.80949       -5.47662       -5.36223
H          0.09991       -6.93473       -4.29452
H         -0.27046       -6.76399       -1.81096
