 xtb: 6.7.1 (edcfbbe)
          12202407023D

 38 39  0     0  0            999 V2000
    1.4662   -0.2515   -0.8896 C   0  0  0  0  0  0  0  0  0  0  0  0
    0.6535   -1.5017   -1.2062 C   0  0  0  0  0  0  0  0  0  0  0  0
    0.9744   -2.6693   -0.2713 C   0  0  0  0  0  0  0  0  0  0  0  0
    0.3758   -2.5206    1.1330 C   0  0  0  0  0  0  0  0  0  0  0  0
   -1.0669   -2.5582    1.1201 N   0  0  0  0  0  0  0  0  0  0  0  0
   -1.9384   -1.5428    1.2397 C   0  0  0  0  0  0  0  0  0  0  0  0
   -1.5493   -0.1463    1.5320 C   0  0  0  0  0  0  0  0  0  0  0  0
   -3.2147   -2.0640    1.0704 C   0  0  0  0  0  0  0  0  0  0  0  0
   -3.0724   -3.4249    0.8439 C   0  0  0  0  0  0  0  0  0  0  0  0
   -1.7568   -3.6981    0.8771 N   0  0  0  0  0  0  0  0  0  0  0  0
   -1.1502   -4.9791    0.7507 C   0  0  0  0  0  0  0  0  0  0  0  0
   -0.6019   -5.5922    1.8702 C   0  0  0  0  0  0  0  0  0  0  0  0
   -0.0257   -6.8442    1.7406 C   0  0  0  0  0  0  0  0  0  0  0  0
   -0.0041   -7.4763    0.5080 C   0  0  0  0  0  0  0  0  0  0  0  0
   -0.5648   -6.8637   -0.6014 C   0  0  0  0  0  0  0  0  0  0  0  0
   -1.1414   -5.6109   -0.4862 C   0  0  0  0  0  0  0  0  0  0  0  0
   -4.1014   -4.4600    0.6132 C   0  0  0  0  0  0  0  0  0  0  0  0
    1.3004    0.0991    0.1264 H   0  0  0  0  0  0  0  0  0  0  0  0
    1.2007    0.5511   -1.5722 H   0  0  0  0  0  0  0  0  0  0  0  0
    2.5273   -0.4547   -1.0061 H   0  0  0  0  0  0  0  0  0  0  0  0
   -0.4159   -1.2780   -1.1717 H   0  0  0  0  0  0  0  0  0  0  0  0
    0.8828   -1.8101   -2.2268 H   0  0  0  0  0  0  0  0  0  0  0  0
    0.6214   -3.6030   -0.7125 H   0  0  0  0  0  0  0  0  0  0  0  0
    2.0561   -2.7503   -0.1601 H   0  0  0  0  0  0  0  0  0  0  0  0
    0.7424   -3.3296    1.7699 H   0  0  0  0  0  0  0  0  0  0  0  0
    0.6767   -1.5702    1.5724 H   0  0  0  0  0  0  0  0  0  0  0  0
   -0.9441   -0.0911    2.4361 H   0  0  0  0  0  0  0  0  0  0  0  0
   -0.9771    0.2844    0.7119 H   0  0  0  0  0  0  0  0  0  0  0  0
   -2.4424    0.4540    1.6779 H   0  0  0  0  0  0  0  0  0  0  0  0
   -4.1349   -1.5195    1.1127 H   0  0  0  0  0  0  0  0  0  0  0  0
   -0.6424   -5.1039    2.8325 H   0  0  0  0  0  0  0  0  0  0  0  0
    0.4008   -7.3264    2.6055 H   0  0  0  0  0  0  0  0  0  0  0  0
    0.4456   -8.4517    0.4130 H   0  0  0  0  0  0  0  0  0  0  0  0
   -0.5547   -7.3602   -1.5582 H   0  0  0  0  0  0  0  0  0  0  0  0
   -1.5796   -5.1240   -1.3441 H   0  0  0  0  0  0  0  0  0  0  0  0
   -4.2859   -4.5820   -0.4542 H   0  0  0  0  0  0  0  0  0  0  0  0
   -3.7851   -5.4208    1.0126 H   0  0  0  0  0  0  0  0  0  0  0  0
   -5.0361   -4.1627    1.0798 H   0  0  0  0  0  0  0  0  0  0  0  0
  1  2  1  0  0  0  0
  2  3  1  0  0  0  0
  3  4  1  0  0  0  0
  4  5  1  0  0  0  0
  5  6  4  0  0  0  0
  6  7  1  0  0  0  0
  6  8  4  0  0  0  0
  8  9  4  0  0  0  0
  5 10  1  0  0  0  0
  9 10  4  0  0  0  0
 10 11  1  0  0  0  0
 11 12  4  0  0  0  0
 12 13  4  0  0  0  0
 13 14  4  0  0  0  0
 14 15  4  0  0  0  0
 11 16  4  0  0  0  0
 15 16  4  0  0  0  0
  9 17  1  0  0  0  0
  1 18  1  0  0  0  0
  1 19  1  0  0  0  0
  1 20  1  0  0  0  0
  2 21  1  0  0  0  0
  2 22  1  0  0  0  0
  3 23  1  0  0  0  0
  3 24  1  0  0  0  0
  4 25  1  0  0  0  0
  4 26  1  0  0  0  0
  7 27  1  0  0  0  0
  7 28  1  0  0  0  0
  7 29  1  0  0  0  0
  8 30  1  0  0  0  0
 12 31  1  0  0  0  0
 13 32  1  0  0  0  0
 14 33  1  0  0  0  0
 15 34  1  0  0  0  0
 16 35  1  0  0  0  0
 17 36  1  0  0  0  0
 17 37  1  0  0  0  0
 17 38  1  0  0  0  0
M  CHG  1   1   1
M  END
