21

C          1.20745        0.49921        0.84719
O          0.40401       -0.54681        0.31304
C          0.96621       -1.82134        0.55540
N          0.37305       -2.89681       -0.33029
C          0.62977       -2.53236       -1.78222
C          1.01604       -4.23134       -0.01312
C         -1.12424       -2.97781       -0.08963
H          0.66026        1.44011        0.74479
H          2.14064        0.57636        0.28073
H          1.42115        0.32643        1.90617
H          2.04743       -1.81311        0.36941
H          0.78301       -2.11034        1.59801
H          1.70955       -2.43808       -1.93142
H          0.22802       -3.32942       -2.41498
H          0.12845       -1.58634       -2.00801
H          0.80925       -4.47905        1.03251
H          0.58752       -4.99016       -0.67490
H          2.09408       -4.14839       -0.17954
H         -1.29592       -3.21224        0.96527
H         -1.58265       -2.01924       -0.34974
H         -1.53169       -3.77100       -0.72416
