35

C         -0.10396        0.63811        0.10959
C          0.22666        1.64976       -0.97456
O          0.81733        0.95511       -2.08160
C          2.12379        1.31118       -2.25977
C          2.45449        2.47077       -2.95372
C          3.79635        2.79834       -3.13641
C          4.79480        1.96561       -2.62363
C          4.45690        0.78967       -1.93638
C          3.11004        0.45389       -1.77625
C          5.55381       -0.01534       -1.32331
O          6.70792        0.41172       -1.34967
C          5.21085       -1.25323       -0.50942
N          4.63895       -0.87860        0.79822
C          3.66533       -1.57443        1.49705
C          3.37845       -0.83642        2.61088
N          4.20266        0.27535        2.57522
C          5.01317        0.20056        1.50874
C          4.20724        1.37567        3.53172
H         -0.76148       -0.14531       -0.28149
H         -0.59473        1.12086        0.95909
H          0.80438        0.14125        0.46616
H         -0.69344        2.12323       -1.33255
H          0.87161        2.43882       -0.56551
H          1.67525        3.11296       -3.35656
H          4.06682        3.70336       -3.67721
H          5.83818        2.24719       -2.76490
H          2.78439       -0.44640       -1.26906
H          4.52199       -1.90059       -1.06009
H          6.12628       -1.82581       -0.32464
H          3.28451       -2.49969        1.09898
H          2.68572       -0.95430        3.42668
H          5.79380        0.90974        1.24989
H          5.22626        1.75373        3.64771
H          3.56061        2.17061        3.14969
H          3.83596        1.03097        4.50014
