 xtb: 6.7.1 (edcfbbe)
          12202407023D

 19 19  0     0  0            999 V2000
    0.7819   -0.0511    0.0993 C   0  0  0  0  0  0  0  0  0  0  0  0
   -0.4127    0.0004    0.0722 C   0  0  0  0  0  0  0  0  0  0  0  0
   -1.8654    0.0328    0.0392 C   0  0  0  0  0  0  0  0  0  0  0  0
   -2.4102   -1.2328    0.4949 N   0  0  0  0  0  0  0  0  0  0  0  0
   -2.1385   -2.4439   -0.0667 C   0  0  0  0  0  0  0  0  0  0  0  0
   -2.8117   -3.3805    0.6534 C   0  0  0  0  0  0  0  0  0  0  0  0
   -3.4860   -2.7282    1.6485 N   0  0  0  0  0  0  0  0  0  0  0  0
   -3.2206   -1.4234    1.5294 C   0  0  0  0  0  0  0  0  0  0  0  0
   -4.2995   -3.3706    2.5976 C   0  0  0  0  0  0  0  0  0  0  0  0
   -4.9855   -2.7615    3.5495 C   0  0  0  0  0  0  0  0  0  0  0  0
    1.8318   -0.0705    0.1169 H   0  0  0  0  0  0  0  0  0  0  0  0
   -2.2359    0.8355    0.6824 H   0  0  0  0  0  0  0  0  0  0  0  0
   -2.1989    0.2179   -0.9886 H   0  0  0  0  0  0  0  0  0  0  0  0
   -1.4943   -2.5503   -0.9159 H   0  0  0  0  0  0  0  0  0  0  0  0
   -2.8562   -4.4433    0.5272 H   0  0  0  0  0  0  0  0  0  0  0  0
   -3.5990   -0.6476    2.1652 H   0  0  0  0  0  0  0  0  0  0  0  0
   -4.3164   -4.4432    2.4739 H   0  0  0  0  0  0  0  0  0  0  0  0
   -5.5825   -3.3386    4.2320 H   0  0  0  0  0  0  0  0  0  0  0  0
   -4.9917   -1.6960    3.6983 H   0  0  0  0  0  0  0  0  0  0  0  0
  1  2  3  0  0  0  0
  2  3  1  0  0  0  0
  3  4  1  0  0  0  0
  4  5  4  0  0  0  0
  5  6  2  0  0  0  0
  6  7  4  0  0  0  0
  4  8  4  0  0  0  0
  7  8  4  0  0  0  0
  7  9  1  0  0  0  0
  9 10  2  0  0  0  0
  1 11  1  0  0  0  0
  3 12  1  0  0  0  0
  3 13  1  0  0  0  0
  5 14  1  0  0  0  0
  6 15  1  0  0  0  0
  8 16  1  0  0  0  0
  9 17  1  0  0  0  0
 10 18  1  0  0  0  0
 10 19  1  0  0  0  0
M  CHG  1   1   1
M  END
