 xtb: 6.7.1 (edcfbbe)
          12202407033D

 32 33  0     0  0            999 V2000
    0.2906   -0.4904    0.4728 C   0  0  0  0  0  0  0  0  0  0  0  0
    0.3905    0.4731   -0.6322 C   0  0  0  0  0  0  0  0  0  0  0  0
   -0.0637    0.3476   -1.8864 N   0  0  0  0  0  0  0  0  0  0  0  0
   -0.6656   -0.8160   -2.4993 C   0  0  0  0  0  0  0  0  0  0  0  0
    0.3363   -1.5820   -3.3733 C   0  0  0  0  0  0  0  0  0  0  0  0
    1.5190   -2.1037   -2.5686 C   0  0  0  0  0  0  0  0  0  0  0  0
    1.1238   -2.7874   -1.4856 F   0  0  0  0  0  0  0  0  0  0  0  0
    2.3061   -2.8910   -3.2858 F   0  0  0  0  0  0  0  0  0  0  0  0
    2.2853   -1.0931   -2.1010 F   0  0  0  0  0  0  0  0  0  0  0  0
    0.2211    1.4989   -2.5757 C   0  0  0  0  0  0  0  0  0  0  0  0
    0.8568    2.3343   -1.7219 C   0  0  0  0  0  0  0  0  0  0  0  0
    0.9620    1.6820   -0.5238 N   0  0  0  0  0  0  0  0  0  0  0  0
    1.5550    2.2317    0.6884 C   0  0  0  0  0  0  0  0  0  0  0  0
    0.5519    2.7514    1.5616 N   0  0  0  0  0  0  0  0  0  0  0  0
    0.2685    4.0444    1.8621 C   0  0  0  0  0  0  0  0  0  0  0  0
   -0.7837    4.0260    2.7387 C   0  0  0  0  0  0  0  0  0  0  0  0
   -1.0850    2.6641    2.9105 C   0  0  0  0  0  0  0  0  0  0  0  0
   -0.2784    1.9101    2.1981 N   0  0  0  0  0  0  0  0  0  0  0  0
   -0.4134   -1.2876    0.2593 H   0  0  0  0  0  0  0  0  0  0  0  0
   -0.0263    0.0422    1.3774 H   0  0  0  0  0  0  0  0  0  0  0  0
    1.2612   -0.9478    0.6699 H   0  0  0  0  0  0  0  0  0  0  0  0
   -1.0568   -1.4735   -1.7208 H   0  0  0  0  0  0  0  0  0  0  0  0
   -1.4972   -0.4858   -3.1264 H   0  0  0  0  0  0  0  0  0  0  0  0
   -0.1608   -2.4432   -3.8230 H   0  0  0  0  0  0  0  0  0  0  0  0
    0.7342   -0.9528   -4.1718 H   0  0  0  0  0  0  0  0  0  0  0  0
   -0.0537    1.6353   -3.6012 H   0  0  0  0  0  0  0  0  0  0  0  0
    1.2397    3.3217   -1.8766 H   0  0  0  0  0  0  0  0  0  0  0  0
    2.1071    1.4304    1.1936 H   0  0  0  0  0  0  0  0  0  0  0  0
    2.2423    3.0323    0.4036 H   0  0  0  0  0  0  0  0  0  0  0  0
    0.8340    4.8560    1.4525 H   0  0  0  0  0  0  0  0  0  0  0  0
   -1.2686    4.8609    3.1979 H   0  0  0  0  0  0  0  0  0  0  0  0
   -1.8462    2.2183    3.5176 H   0  0  0  0  0  0  0  0  0  0  0  0
  1  2  1  0  0  0  0
  2  3  4  0  0  0  0
  3  4  1  0  0  0  0
  4  5  1  0  0  0  0
  5  6  1  0  0  0  0
  6  7  1  0  0  0  0
  6  8  1  0  0  0  0
  6  9  1  0  0  0  0
  3 10  1  0  0  0  0
 10 11  2  0  0  0  0
  2 12  4  0  0  0  0
 11 12  1  0  0  0  0
 12 13  1  0  0  0  0
 13 14  1  0  0  0  0
 14 15  4  0  0  0  0
 15 16  2  0  0  0  0
 16 17  4  0  0  0  0
 14 18  1  0  0  0  0
 17 18  2  0  0  0  0
  1 19  1  0  0  0  0
  1 20  1  0  0  0  0
  1 21  1  0  0  0  0
  4 22  1  0  0  0  0
  4 23  1  0  0  0  0
  5 24  1  0  0  0  0
  5 25  1  0  0  0  0
 10 26  1  0  0  0  0
 11 27  1  0  0  0  0
 13 28  1  0  0  0  0
 13 29  1  0  0  0  0
 15 30  1  0  0  0  0
 16 31  1  0  0  0  0
 17 32  1  0  0  0  0
M  CHG  1   1   1
M  END
