 xtb: 6.7.1 (edcfbbe)
          12202407033D

 84 84  0     0  0            999 V2000
    1.0010    1.2906    0.0121 C   0  0  0  0  0  0  0  0  0  0  0  0
   -0.0823    0.8911    1.0072 C   0  0  0  0  0  0  0  0  0  0  0  0
   -0.2794    1.9084    2.1319 C   0  0  0  0  0  0  0  0  0  0  0  0
   -0.6932    3.3085    1.6735 C   0  0  0  0  0  0  0  0  0  0  0  0
   -2.0108    3.3626    0.8967 C   0  0  0  0  0  0  0  0  0  0  0  0
   -3.2433    2.8740    1.6613 C   0  0  0  0  0  0  0  0  0  0  0  0
   -3.5093    3.5620    3.0029 C   0  0  0  0  0  0  0  0  0  0  0  0
   -3.6590    5.0842    2.9476 C   0  0  0  0  0  0  0  0  0  0  0  0
   -4.8273    5.5502    2.0791 C   0  0  0  0  0  0  0  0  0  0  0  0
   -5.1426    7.0427    2.2293 C   0  0  0  0  0  0  0  0  0  0  0  0
   -4.0135    8.0271    1.9130 C   0  0  0  0  0  0  0  0  0  0  0  0
   -3.7746    8.2183    0.5116 O   0  0  0  0  0  0  0  0  0  0  0  0
   -2.9055    7.3550   -0.1040 C   0  0  0  0  0  0  0  0  0  0  0  0
   -1.5045    7.7620    0.1211 N   0  0  0  0  0  0  0  0  0  0  0  0
   -0.5997    7.1564    0.9428 C   0  0  0  0  0  0  0  0  0  0  0  0
    0.5423    7.8955    0.9016 C   0  0  0  0  0  0  0  0  0  0  0  0
    0.3116    8.9478    0.0664 N   0  0  0  0  0  0  0  0  0  0  0  0
   -0.9320    8.8476   -0.3912 C   0  0  0  0  0  0  0  0  0  0  0  0
    1.2810    9.9703   -0.3621 C   0  0  0  0  0  0  0  0  0  0  0  0
    1.2072   10.1898   -1.7133 O   0  0  0  0  0  0  0  0  0  0  0  0
    1.6226    9.1322   -2.5875 C   0  0  0  0  0  0  0  0  0  0  0  0
    3.0872    8.6998   -2.4743 C   0  0  0  0  0  0  0  0  0  0  0  0
    3.4144    7.5732   -1.4831 C   0  0  0  0  0  0  0  0  0  0  0  0
    2.5586    6.3100   -1.6065 C   0  0  0  0  0  0  0  0  0  0  0  0
    2.5850    5.6474   -2.9852 C   0  0  0  0  0  0  0  0  0  0  0  0
    3.9617    5.1547   -3.4350 C   0  0  0  0  0  0  0  0  0  0  0  0
    4.6257    4.1444   -2.4965 C   0  0  0  0  0  0  0  0  0  0  0  0
    3.7909    2.8993   -2.1892 C   0  0  0  0  0  0  0  0  0  0  0  0
    3.3675    2.0842   -3.4126 C   0  0  0  0  0  0  0  0  0  0  0  0
    4.5223    1.5206   -4.2414 C   0  0  0  0  0  0  0  0  0  0  0  0
    5.3817    0.5239   -3.4731 C   0  0  0  0  0  0  0  0  0  0  0  0
    0.7043    2.1624   -0.5675 H   0  0  0  0  0  0  0  0  0  0  0  0
    1.1890    0.4763   -0.6830 H   0  0  0  0  0  0  0  0  0  0  0  0
    1.9309    1.5169    0.5297 H   0  0  0  0  0  0  0  0  0  0  0  0
   -1.0229    0.7313    0.4774 H   0  0  0  0  0  0  0  0  0  0  0  0
    0.1955   -0.0606    1.4645 H   0  0  0  0  0  0  0  0  0  0  0  0
   -1.0273    1.5217    2.8257 H   0  0  0  0  0  0  0  0  0  0  0  0
    0.6587    2.0011    2.6852 H   0  0  0  0  0  0  0  0  0  0  0  0
   -0.7640    3.9436    2.5610 H   0  0  0  0  0  0  0  0  0  0  0  0
    0.0976    3.7206    1.0398 H   0  0  0  0  0  0  0  0  0  0  0  0
   -2.1765    4.3927    0.5630 H   0  0  0  0  0  0  0  0  0  0  0  0
   -1.9137    2.7600   -0.0077 H   0  0  0  0  0  0  0  0  0  0  0  0
   -4.1147    2.9958    1.0143 H   0  0  0  0  0  0  0  0  0  0  0  0
   -3.1376    1.8054    1.8511 H   0  0  0  0  0  0  0  0  0  0  0  0
   -4.4253    3.1387    3.4192 H   0  0  0  0  0  0  0  0  0  0  0  0
   -2.7011    3.3227    3.6964 H   0  0  0  0  0  0  0  0  0  0  0  0
   -3.8208    5.4448    3.9662 H   0  0  0  0  0  0  0  0  0  0  0  0
   -2.7214    5.5228    2.5980 H   0  0  0  0  0  0  0  0  0  0  0  0
   -4.6527    5.3037    1.0305 H   0  0  0  0  0  0  0  0  0  0  0  0
   -5.7193    5.0002    2.3847 H   0  0  0  0  0  0  0  0  0  0  0  0
   -5.9904    7.2930    1.5899 H   0  0  0  0  0  0  0  0  0  0  0  0
   -5.4396    7.2301    3.2627 H   0  0  0  0  0  0  0  0  0  0  0  0
   -4.3101    9.0189    2.2608 H   0  0  0  0  0  0  0  0  0  0  0  0
   -3.0852    7.7471    2.4218 H   0  0  0  0  0  0  0  0  0  0  0  0
   -2.9892    6.3179    0.2390 H   0  0  0  0  0  0  0  0  0  0  0  0
   -3.1002    7.4127   -1.1804 H   0  0  0  0  0  0  0  0  0  0  0  0
   -0.8080    6.2467    1.4701 H   0  0  0  0  0  0  0  0  0  0  0  0
    1.4768    7.7456    1.4020 H   0  0  0  0  0  0  0  0  0  0  0  0
   -1.3956    9.5359   -1.0719 H   0  0  0  0  0  0  0  0  0  0  0  0
    1.0243   10.9216    0.1195 H   0  0  0  0  0  0  0  0  0  0  0  0
    2.2684    9.6394   -0.0176 H   0  0  0  0  0  0  0  0  0  0  0  0
    0.9510    8.2732   -2.4720 H   0  0  0  0  0  0  0  0  0  0  0  0
    1.4503    9.5674   -3.5730 H   0  0  0  0  0  0  0  0  0  0  0  0
    3.3962    8.3721   -3.4668 H   0  0  0  0  0  0  0  0  0  0  0  0
    3.6868    9.5788   -2.2292 H   0  0  0  0  0  0  0  0  0  0  0  0
    4.4577    7.3005   -1.6461 H   0  0  0  0  0  0  0  0  0  0  0  0
    3.3498    7.9306   -0.4517 H   0  0  0  0  0  0  0  0  0  0  0  0
    2.9115    5.5942   -0.8624 H   0  0  0  0  0  0  0  0  0  0  0  0
    1.5168    6.5354   -1.3524 H   0  0  0  0  0  0  0  0  0  0  0  0
    1.8964    4.8006   -2.9637 H   0  0  0  0  0  0  0  0  0  0  0  0
    2.2066    6.3485   -3.7326 H   0  0  0  0  0  0  0  0  0  0  0  0
    3.8476    4.7023   -4.4212 H   0  0  0  0  0  0  0  0  0  0  0  0
    4.6340    6.0072   -3.5535 H   0  0  0  0  0  0  0  0  0  0  0  0
    5.5704    3.8384   -2.9479 H   0  0  0  0  0  0  0  0  0  0  0  0
    4.8731    4.6327   -1.5505 H   0  0  0  0  0  0  0  0  0  0  0  0
    4.3690    2.2599   -1.5202 H   0  0  0  0  0  0  0  0  0  0  0  0
    2.8895    3.1915   -1.6454 H   0  0  0  0  0  0  0  0  0  0  0  0
    2.7523    1.2507   -3.0637 H   0  0  0  0  0  0  0  0  0  0  0  0
    2.7395    2.6997   -4.0604 H   0  0  0  0  0  0  0  0  0  0  0  0
    4.0972    1.0188   -5.1139 H   0  0  0  0  0  0  0  0  0  0  0  0
    5.1489    2.3345   -4.6100 H   0  0  0  0  0  0  0  0  0  0  0  0
    4.7639   -0.2679   -3.0547 H   0  0  0  0  0  0  0  0  0  0  0  0
    6.1144    0.0706   -4.1363 H   0  0  0  0  0  0  0  0  0  0  0  0
    5.9180    1.0087   -2.6613 H   0  0  0  0  0  0  0  0  0  0  0  0
  1  2  1  0  0  0  0
  2  3  1  0  0  0  0
  3  4  1  0  0  0  0
  4  5  1  0  0  0  0
  5  6  1  0  0  0  0
  6  7  1  0  0  0  0
  7  8  1  0  0  0  0
  8  9  1  0  0  0  0
  9 10  1  0  0  0  0
 10 11  1  0  0  0  0
 11 12  1  0  0  0  0
 12 13  1  0  0  0  0
 13 14  1  0  0  0  0
 14 15  4  0  0  0  0
 15 16  2  0  0  0  0
 16 17  4  0  0  0  0
 14 18  4  0  0  0  0
 17 18  4  0  0  0  0
 17 19  1  0  0  0  0
 19 20  1  0  0  0  0
 20 21  1  0  0  0  0
 21 22  1  0  0  0  0
 22 23  1  0  0  0  0
 23 24  1  0  0  0  0
 24 25  1  0  0  0  0
 25 26  1  0  0  0  0
 26 27  1  0  0  0  0
 27 28  1  0  0  0  0
 28 29  1  0  0  0  0
 29 30  1  0  0  0  0
 30 31  1  0  0  0  0
  1 32  1  0  0  0  0
  1 33  1  0  0  0  0
  1 34  1  0  0  0  0
  2 35  1  0  0  0  0
  2 36  1  0  0  0  0
  3 37  1  0  0  0  0
  3 38  1  0  0  0  0
  4 39  1  0  0  0  0
  4 40  1  0  0  0  0
  5 41  1  0  0  0  0
  5 42  1  0  0  0  0
  6 43  1  0  0  0  0
  6 44  1  0  0  0  0
  7 45  1  0  0  0  0
  7 46  1  0  0  0  0
  8 47  1  0  0  0  0
  8 48  1  0  0  0  0
  9 49  1  0  0  0  0
  9 50  1  0  0  0  0
 10 51  1  0  0  0  0
 10 52  1  0  0  0  0
 11 53  1  0  0  0  0
 11 54  1  0  0  0  0
 13 55  1  0  0  0  0
 13 56  1  0  0  0  0
 15 57  1  0  0  0  0
 16 58  1  0  0  0  0
 18 59  1  0  0  0  0
 19 60  1  0  0  0  0
 19 61  1  0  0  0  0
 21 62  1  0  0  0  0
 21 63  1  0  0  0  0
 22 64  1  0  0  0  0
 22 65  1  0  0  0  0
 23 66  1  0  0  0  0
 23 67  1  0  0  0  0
 24 68  1  0  0  0  0
 24 69  1  0  0  0  0
 25 70  1  0  0  0  0
 25 71  1  0  0  0  0
 26 72  1  0  0  0  0
 26 73  1  0  0  0  0
 27 74  1  0  0  0  0
 27 75  1  0  0  0  0
 28 76  1  0  0  0  0
 28 77  1  0  0  0  0
 29 78  1  0  0  0  0
 29 79  1  0  0  0  0
 30 80  1  0  0  0  0
 30 81  1  0  0  0  0
 31 82  1  0  0  0  0
 31 83  1  0  0  0  0
 31 84  1  0  0  0  0
M  CHG  1   1   1
M  END
