33

C          1.42976        0.48749       -0.11002
C          0.61329       -0.11427       -1.24645
C          1.13684       -1.45733       -1.76473
N          0.59242       -2.71047       -1.05594
C         -0.94206       -2.87386       -1.18633
C         -1.50502       -3.00640       -2.57926
C         -1.89184       -1.87457       -3.31323
C         -2.41266       -2.00640       -4.60185
C         -2.56158       -3.26933       -5.16945
C         -2.19709       -4.40271       -4.44856
C         -1.67520       -4.27449       -3.16045
C          1.29006       -3.92273       -1.68878
C          0.94142       -2.71452        0.42723
H          1.28336       -0.04227        0.83271
H          1.12527        1.52665        0.05452
H          2.49865        0.48595       -0.34481
H         -0.44077       -0.15156       -0.96240
H          0.67433        0.59520       -2.08234
H          0.88259       -1.56515       -2.82485
H          2.23078       -1.49763       -1.69071
H         -1.20722       -3.76638       -0.60349
H         -1.40939       -2.02894       -0.66840
H         -1.81152       -0.87476       -2.89218
H         -2.71590       -1.12485       -5.16325
H         -2.97643       -3.37065       -6.17039
H         -2.33237       -5.38860       -4.88964
H         -1.41985       -5.18133       -2.61576
H          2.35835       -3.86252       -1.45749
H          0.86296       -4.83465       -1.26115
H          1.14557       -3.89389       -2.77204
H          2.00356       -2.47800        0.53781
H          0.31447       -1.98077        0.93848
H          0.73299       -3.71067        0.83064
