38

C          1.46937       -0.18291       -0.84843
C          0.77050       -1.48782       -1.19981
C          1.08865       -2.62237       -0.22378
C          0.45448       -2.46853        1.15849
N         -1.01773       -2.58784        1.13484
C         -1.95663       -1.51730        1.25911
C         -1.64523       -0.11337        1.55675
C         -3.28606       -2.02620        1.02618
C         -3.10319       -3.43610        0.77964
N         -1.70904       -3.74468        0.87387
C         -1.11134       -5.06953        0.73756
C         -0.34653       -5.57327        1.78395
C          0.20185       -6.84844        1.65651
C         -0.02800       -7.59460        0.49702
C         -0.81293       -7.07517       -0.53648
C         -1.36891       -5.80260       -0.41666
C         -4.19773       -4.38871        0.54668
H          1.14867        0.20258        0.12265
H          1.24317        0.57869       -1.60152
H          2.55554       -0.31695       -0.82088
H         -0.31067       -1.32641       -1.26398
H          1.10056       -1.79108       -2.20087
H          0.75994       -3.56247       -0.67782
H          2.17640       -2.69963       -0.10620
H          0.85372       -3.22171        1.84089
H          0.72410       -1.50490        1.60028
H         -0.93059       -0.05252        2.38141
H         -1.22069        0.36532        0.67133
H         -2.54910        0.43017        1.84731
H         -4.21644       -1.47510        1.04384
H         -0.20799       -5.01519        2.70336
H          0.79792       -7.27395        2.46213
H          0.40062       -8.59186        0.40148
H         -0.98550       -7.66797       -1.43330
H         -1.96120       -5.39418       -1.22828
H         -4.25065       -4.63867       -0.51610
H         -4.03548       -5.30097        1.12688
H         -5.15599       -3.95723        0.85092
