 xtb: 6.7.1 (edcfbbe)
          12202407023D

 34 34  0     0  0            999 V2000
   -0.0887    0.9958    0.8408 C   0  0  0  0  0  0  0  0  0  0  0  0
    0.2653   -0.0171   -0.2409 C   0  0  0  0  0  0  0  0  0  0  0  0
    1.1059   -1.1856    0.2790 C   0  0  0  0  0  0  0  0  0  0  0  0
    0.4320   -2.0263    1.3678 C   0  0  0  0  0  0  0  0  0  0  0  0
   -0.9124   -2.6488    0.9805 C   0  0  0  0  0  0  0  0  0  0  0  0
   -0.9045   -3.5681   -0.2397 C   0  0  0  0  0  0  0  0  0  0  0  0
   -0.2746   -4.8387    0.0117 O   0  0  0  0  0  0  0  0  0  0  0  0
    1.0493   -4.9458   -0.2808 C   0  0  0  0  0  0  0  0  0  0  0  0
    1.2626   -5.2822   -1.7277 N   0  0  0  0  0  0  0  0  0  0  0  0
    2.3965   -4.9301   -2.3420 C   0  0  0  0  0  0  0  0  0  0  0  0
    2.6125   -5.2544   -3.6651 C   0  0  0  0  0  0  0  0  0  0  0  0
    1.6325   -5.9521   -4.3621 C   0  0  0  0  0  0  0  0  0  0  0  0
    0.4643   -6.3077   -3.7005 C   0  0  0  0  0  0  0  0  0  0  0  0
    0.3105   -5.9597   -2.3741 C   0  0  0  0  0  0  0  0  0  0  0  0
   -0.7728    0.5736    1.5718 H   0  0  0  0  0  0  0  0  0  0  0  0
   -0.5680    1.8631    0.3948 H   0  0  0  0  0  0  0  0  0  0  0  0
    0.8076    1.3304    1.3573 H   0  0  0  0  0  0  0  0  0  0  0  0
   -0.6495   -0.3916   -0.7052 H   0  0  0  0  0  0  0  0  0  0  0  0
    0.8408    0.4880   -1.0204 H   0  0  0  0  0  0  0  0  0  0  0  0
    1.3832   -1.8144   -0.5750 H   0  0  0  0  0  0  0  0  0  0  0  0
    2.0340   -0.7861    0.6940 H   0  0  0  0  0  0  0  0  0  0  0  0
    1.1199   -2.8101    1.6968 H   0  0  0  0  0  0  0  0  0  0  0  0
    0.2569   -1.3884    2.2340 H   0  0  0  0  0  0  0  0  0  0  0  0
   -1.2860   -3.2248    1.8286 H   0  0  0  0  0  0  0  0  0  0  0  0
   -1.6317   -1.8549    0.7793 H   0  0  0  0  0  0  0  0  0  0  0  0
   -1.9359   -3.8228   -0.4943 H   0  0  0  0  0  0  0  0  0  0  0  0
   -0.4411   -3.0829   -1.1045 H   0  0  0  0  0  0  0  0  0  0  0  0
    1.6303   -4.0385   -0.0781 H   0  0  0  0  0  0  0  0  0  0  0  0
    1.4547   -5.7840    0.3011 H   0  0  0  0  0  0  0  0  0  0  0  0
    3.1281   -4.3857   -1.7624 H   0  0  0  0  0  0  0  0  0  0  0  0
    3.5334   -4.9599   -4.1426 H   0  0  0  0  0  0  0  0  0  0  0  0
    1.7780   -6.2121   -5.3991 H   0  0  0  0  0  0  0  0  0  0  0  0
   -0.3197   -6.8511   -4.2031 H   0  0  0  0  0  0  0  0  0  0  0  0
   -0.5720   -6.2045   -1.7981 H   0  0  0  0  0  0  0  0  0  0  0  0
  1  2  1  0  0  0  0
  2  3  1  0  0  0  0
  3  4  1  0  0  0  0
  4  5  1  0  0  0  0
  5  6  1  0  0  0  0
  6  7  1  0  0  0  0
  7  8  1  0  0  0  0
  8  9  1  0  0  0  0
  9 10  4  0  0  0  0
 10 11  4  0  0  0  0
 11 12  4  0  0  0  0
 12 13  4  0  0  0  0
  9 14  4  0  0  0  0
 13 14  4  0  0  0  0
  1 15  1  0  0  0  0
  1 16  1  0  0  0  0
  1 17  1  0  0  0  0
  2 18  1  0  0  0  0
  2 19  1  0  0  0  0
  3 20  1  0  0  0  0
  3 21  1  0  0  0  0
  4 22  1  0  0  0  0
  4 23  1  0  0  0  0
  5 24  1  0  0  0  0
  5 25  1  0  0  0  0
  6 26  1  0  0  0  0
  6 27  1  0  0  0  0
  8 28  1  0  0  0  0
  8 29  1  0  0  0  0
 10 30  1  0  0  0  0
 11 31  1  0  0  0  0
 12 32  1  0  0  0  0
 13 33  1  0  0  0  0
 14 34  1  0  0  0  0
M  CHG  1   1   1
M  END
