 xtb: 6.7.1 (edcfbbe)
          12202407023D

 33 33  0     0  0            999 V2000
    1.5911    0.4981   -0.2307 C   0  0  0  0  0  0  0  0  0  0  0  0
    0.5266   -0.1483   -1.1137 C   0  0  0  0  0  0  0  0  0  0  0  0
    0.9649   -1.4806   -1.7365 C   0  0  0  0  0  0  0  0  0  0  0  0
    0.5180   -2.7270   -1.0429 N   0  0  0  0  0  0  0  0  0  0  0  0
   -0.9694   -2.9194   -1.1616 C   0  0  0  0  0  0  0  0  0  0  0  0
   -1.4737   -3.0321   -2.5770 C   0  0  0  0  0  0  0  0  0  0  0  0
   -1.8791   -1.8975   -3.2740 C   0  0  0  0  0  0  0  0  0  0  0  0
   -2.3599   -2.0040   -4.5673 C   0  0  0  0  0  0  0  0  0  0  0  0
   -2.4481   -3.2449   -5.1760 C   0  0  0  0  0  0  0  0  0  0  0  0
   -2.0662   -4.3814   -4.4827 C   0  0  0  0  0  0  0  0  0  0  0  0
   -1.5834   -4.2768   -3.1900 C   0  0  0  0  0  0  0  0  0  0  0  0
    1.2093   -3.8667   -1.6743 C   0  0  0  0  0  0  0  0  0  0  0  0
    0.8762   -2.6990    0.3852 C   0  0  0  0  0  0  0  0  0  0  0  0
    1.8172   -0.0894    0.6547 H   0  0  0  0  0  0  0  0  0  0  0  0
    1.2434    1.4734    0.0992 H   0  0  0  0  0  0  0  0  0  0  0  0
    2.5109    0.6477   -0.7911 H   0  0  0  0  0  0  0  0  0  0  0  0
   -0.4010   -0.2564   -0.5511 H   0  0  0  0  0  0  0  0  0  0  0  0
    0.3157    0.5393   -1.9342 H   0  0  0  0  0  0  0  0  0  0  0  0
    0.5896   -1.5517   -2.7592 H   0  0  0  0  0  0  0  0  0  0  0  0
    2.0560   -1.5015   -1.7758 H   0  0  0  0  0  0  0  0  0  0  0  0
   -1.2197   -3.8291   -0.6116 H   0  0  0  0  0  0  0  0  0  0  0  0
   -1.4560   -2.0770   -0.6682 H   0  0  0  0  0  0  0  0  0  0  0  0
   -1.8403   -0.9277   -2.7996 H   0  0  0  0  0  0  0  0  0  0  0  0
   -2.6745   -1.1175   -5.0951 H   0  0  0  0  0  0  0  0  0  0  0  0
   -2.8273   -3.3274   -6.1821 H   0  0  0  0  0  0  0  0  0  0  0  0
   -2.1517   -5.3526   -4.9439 H   0  0  0  0  0  0  0  0  0  0  0  0
   -1.3121   -5.1735   -2.6518 H   0  0  0  0  0  0  0  0  0  0  0  0
    2.2855   -3.7749   -1.5382 H   0  0  0  0  0  0  0  0  0  0  0  0
    0.8808   -4.8004   -1.2211 H   0  0  0  0  0  0  0  0  0  0  0  0
    0.9887   -3.8969   -2.7399 H   0  0  0  0  0  0  0  0  0  0  0  0
    1.9459   -2.5305    0.4951 H   0  0  0  0  0  0  0  0  0  0  0  0
    0.3363   -1.9088    0.9009 H   0  0  0  0  0  0  0  0  0  0  0  0
    0.6241   -3.6499    0.8519 H   0  0  0  0  0  0  0  0  0  0  0  0
  1  2  1  0  0  0  0
  2  3  1  0  0  0  0
  3  4  1  0  0  0  0
  4  5  1  0  0  0  0
  5  6  1  0  0  0  0
  6  7  4  0  0  0  0
  7  8  4  0  0  0  0
  8  9  4  0  0  0  0
  9 10  4  0  0  0  0
  6 11  4  0  0  0  0
 10 11  4  0  0  0  0
  4 12  1  0  0  0  0
  4 13  1  0  0  0  0
  1 14  1  0  0  0  0
  1 15  1  0  0  0  0
  1 16  1  0  0  0  0
  2 17  1  0  0  0  0
  2 18  1  0  0  0  0
  3 19  1  0  0  0  0
  3 20  1  0  0  0  0
  5 21  1  0  0  0  0
  5 22  1  0  0  0  0
  7 23  1  0  0  0  0
  8 24  1  0  0  0  0
  9 25  1  0  0  0  0
 10 26  1  0  0  0  0
 11 27  1  0  0  0  0
 12 28  1  0  0  0  0
 12 29  1  0  0  0  0
 12 30  1  0  0  0  0
 13 31  1  0  0  0  0
 13 32  1  0  0  0  0
 13 33  1  0  0  0  0
M  CHG  1   1   1
M  END
