22

N          1.03327        0.05063        0.07956
C          2.29424        0.05063        0.07956
C          3.81424        0.05063        0.07956
C          4.36091       -1.09003        0.91905
N          3.99125       -2.47641        0.49107
C          4.03709       -3.45105        1.43732
C          3.76086       -4.77628        1.12294
C          3.41546       -5.12036       -0.17940
C          3.39349       -4.11652       -1.14375
C          3.69251       -2.80318       -0.79016
C          3.14175       -6.54881       -0.55256
H          4.17979        0.00809       -0.95109
H          4.15699        1.00400        0.49813
H          5.45720       -1.07068        0.91524
H          4.01614       -0.97811        1.95483
H          4.31412       -3.16350        2.44850
H          3.81848       -5.53761        1.89981
H          3.14670       -4.35228       -2.17815
H          3.69195       -2.02702       -1.54798
H          4.05988       -7.02348       -0.91236
H          2.76682       -7.11360        0.30751
H          2.38003       -6.60590       -1.33705
