 xtb: 6.7.1 (edcfbbe)
          12202407033D

 34 36  0     0  0            999 V2000
    0.3324   -0.2072    2.0382 O   0  0  0  0  0  0  0  0  0  0  0  0
    1.4258   -0.1235    1.5445 C   0  0  0  0  0  0  0  0  0  0  0  0
    2.4802    0.7804    2.0238 C   0  0  0  0  0  0  0  0  0  0  0  0
    3.5454    1.2108    1.2296 C   0  0  0  0  0  0  0  0  0  0  0  0
    4.4971    2.0648    1.7529 C   0  0  0  0  0  0  0  0  0  0  0  0
    4.4048    2.4948    3.0685 C   0  0  0  0  0  0  0  0  0  0  0  0
    3.3449    2.0823    3.8614 C   0  0  0  0  0  0  0  0  0  0  0  0
    2.3850    1.2367    3.3423 C   0  0  0  0  0  0  0  0  0  0  0  0
    1.7968   -1.0623    0.3621 C   0  0  0  0  0  0  0  0  0  0  0  0
    3.0053   -1.7884    0.6435 N   0  0  0  0  0  0  0  0  0  0  0  0
    4.1277   -1.8107   -0.0687 C   0  0  0  0  0  0  0  0  0  0  0  0
    5.0596   -2.5531    0.5197 N   0  0  0  0  0  0  0  0  0  0  0  0
    4.5241   -3.0509    1.6897 C   0  0  0  0  0  0  0  0  0  0  0  0
    3.2064   -2.5622    1.7698 C   0  0  0  0  0  0  0  0  0  0  0  0
    2.3757   -2.8886    2.8357 C   0  0  0  0  0  0  0  0  0  0  0  0
    2.9103   -3.7073    3.8087 C   0  0  0  0  0  0  0  0  0  0  0  0
    4.2213   -4.1893    3.7320 C   0  0  0  0  0  0  0  0  0  0  0  0
    5.0522   -3.8747    2.6769 C   0  0  0  0  0  0  0  0  0  0  0  0
    6.3912   -2.8062    0.0399 C   0  0  0  0  0  0  0  0  0  0  0  0
    3.6095    0.9282    0.1896 H   0  0  0  0  0  0  0  0  0  0  0  0
    5.3092    2.4083    1.1304 H   0  0  0  0  0  0  0  0  0  0  0  0
    5.1524    3.1617    3.4688 H   0  0  0  0  0  0  0  0  0  0  0  0
    3.2641    2.4278    4.8799 H   0  0  0  0  0  0  0  0  0  0  0  0
    1.5482    0.9111    3.9413 H   0  0  0  0  0  0  0  0  0  0  0  0
    0.9644   -1.7616    0.2334 H   0  0  0  0  0  0  0  0  0  0  0  0
    1.9133   -0.4808   -0.5538 H   0  0  0  0  0  0  0  0  0  0  0  0
    4.2628   -1.3072   -1.0080 H   0  0  0  0  0  0  0  0  0  0  0  0
    1.3640   -2.5242    2.9002 H   0  0  0  0  0  0  0  0  0  0  0  0
    2.3007   -3.9875    4.6528 H   0  0  0  0  0  0  0  0  0  0  0  0
    4.5889   -4.8272    4.5198 H   0  0  0  0  0  0  0  0  0  0  0  0
    6.0598   -4.2518    2.6202 H   0  0  0  0  0  0  0  0  0  0  0  0
    6.5364   -2.3209   -0.9223 H   0  0  0  0  0  0  0  0  0  0  0  0
    7.1233   -2.4198    0.7505 H   0  0  0  0  0  0  0  0  0  0  0  0
    6.5480   -3.8796   -0.0735 H   0  0  0  0  0  0  0  0  0  0  0  0
  1  2  2  0  0  0  0
  2  3  1  0  0  0  0
  3  4  4  0  0  0  0
  4  5  4  0  0  0  0
  5  6  4  0  0  0  0
  6  7  4  0  0  0  0
  3  8  4  0  0  0  0
  7  8  4  0  0  0  0
  2  9  1  0  0  0  0
  9 10  1  0  0  0  0
 10 11  4  0  0  0  0
 11 12  4  0  0  0  0
 12 13  1  0  0  0  0
 10 14  1  0  0  0  0
 13 14  4  0  0  0  0
 14 15  4  0  0  0  0
 15 16  4  0  0  0  0
 16 17  4  0  0  0  0
 13 18  4  0  0  0  0
 17 18  4  0  0  0  0
 12 19  1  0  0  0  0
  4 20  1  0  0  0  0
  5 21  1  0  0  0  0
  6 22  1  0  0  0  0
  7 23  1  0  0  0  0
  8 24  1  0  0  0  0
  9 25  1  0  0  0  0
  9 26  1  0  0  0  0
 11 27  1  0  0  0  0
 15 28  1  0  0  0  0
 16 29  1  0  0  0  0
 17 30  1  0  0  0  0
 18 31  1  0  0  0  0
 19 32  1  0  0  0  0
 19 33  1  0  0  0  0
 19 34  1  0  0  0  0
M  CHG  1   1   1
M  END
