 xtb: 6.7.1 (edcfbbe)
          12202407033D

 39 38  0     0  0            999 V2000
    1.2028    0.0276    0.4543 C   0  0  0  0  0  0  0  0  0  0  0  0
    0.2195   -1.1234    0.2798 C   0  0  0  0  0  0  0  0  0  0  0  0
    0.3752   -2.3035    1.2431 C   0  0  0  0  0  0  0  0  0  0  0  0
   -0.3447   -2.1230    2.5849 C   0  0  0  0  0  0  0  0  0  0  0  0
   -1.8516   -2.3860    2.4986 C   0  0  0  0  0  0  0  0  0  0  0  0
   -2.2370   -3.8553    2.3139 C   0  0  0  0  0  0  0  0  0  0  0  0
   -1.8721   -4.7743    3.4815 C   0  0  0  0  0  0  0  0  0  0  0  0
   -2.5780   -4.4101    4.7822 C   0  0  0  0  0  0  0  0  0  0  0  0
    0.8415    1.1960    1.8249 S   0  0  0  0  0  0  0  0  0  0  0  0
    1.8135    0.6931    3.1748 C   0  0  0  0  0  0  0  0  0  0  0  0
    2.4717   -0.4570    3.1797 N   0  0  0  0  0  0  0  0  0  0  0  0
    3.3121   -0.9188    4.2652 C   0  0  0  0  0  0  0  0  0  0  0  0
    1.8809    1.5314    4.1962 N   0  0  0  0  0  0  0  0  0  0  0  0
    1.2179    2.8146    4.2303 C   0  0  0  0  0  0  0  0  0  0  0  0
    1.1332    0.6869   -0.4128 H   0  0  0  0  0  0  0  0  0  0  0  0
    2.2375   -0.3021    0.5419 H   0  0  0  0  0  0  0  0  0  0  0  0
   -0.7986   -0.7367    0.3376 H   0  0  0  0  0  0  0  0  0  0  0  0
    0.3677   -1.4867   -0.7397 H   0  0  0  0  0  0  0  0  0  0  0  0
   -0.0375   -3.1883    0.7585 H   0  0  0  0  0  0  0  0  0  0  0  0
    1.4398   -2.5173    1.3935 H   0  0  0  0  0  0  0  0  0  0  0  0
    0.0892   -2.8036    3.3186 H   0  0  0  0  0  0  0  0  0  0  0  0
   -0.2031   -1.1052    2.9560 H   0  0  0  0  0  0  0  0  0  0  0  0
   -2.3195   -2.0124    3.4099 H   0  0  0  0  0  0  0  0  0  0  0  0
   -2.2690   -1.8143    1.6670 H   0  0  0  0  0  0  0  0  0  0  0  0
   -3.3181   -3.8987    2.1684 H   0  0  0  0  0  0  0  0  0  0  0  0
   -1.7761   -4.2469    1.4045 H   0  0  0  0  0  0  0  0  0  0  0  0
   -2.1552   -5.7914    3.2042 H   0  0  0  0  0  0  0  0  0  0  0  0
   -0.7913   -4.7762    3.6392 H   0  0  0  0  0  0  0  0  0  0  0  0
   -3.6532   -4.3612    4.6288 H   0  0  0  0  0  0  0  0  0  0  0  0
   -2.3767   -5.1621    5.5410 H   0  0  0  0  0  0  0  0  0  0  0  0
   -2.2403   -3.4494    5.1641 H   0  0  0  0  0  0  0  0  0  0  0  0
    2.2671   -1.1208    2.4447 H   0  0  0  0  0  0  0  0  0  0  0  0
    2.7251   -1.1319    5.1619 H   0  0  0  0  0  0  0  0  0  0  0  0
    3.8058   -1.8346    3.9530 H   0  0  0  0  0  0  0  0  0  0  0  0
    4.0800   -0.1799    4.4988 H   0  0  0  0  0  0  0  0  0  0  0  0
    2.3847    1.2480    5.0244 H   0  0  0  0  0  0  0  0  0  0  0  0
    1.5347    3.3532    5.1177 H   0  0  0  0  0  0  0  0  0  0  0  0
    1.4765    3.3993    3.3465 H   0  0  0  0  0  0  0  0  0  0  0  0
    0.1337    2.6923    4.2555 H   0  0  0  0  0  0  0  0  0  0  0  0
  1  2  1  0  0  0  0
  2  3  1  0  0  0  0
  3  4  1  0  0  0  0
  4  5  1  0  0  0  0
  5  6  1  0  0  0  0
  6  7  1  0  0  0  0
  7  8  1  0  0  0  0
  1  9  1  0  0  0  0
  9 10  1  0  0  0  0
 10 11  4  0  0  0  0
 11 12  1  0  0  0  0
 10 13  4  0  0  0  0
 13 14  1  0  0  0  0
  1 15  1  0  0  0  0
  1 16  1  0  0  0  0
  2 17  1  0  0  0  0
  2 18  1  0  0  0  0
  3 19  1  0  0  0  0
  3 20  1  0  0  0  0
  4 21  1  0  0  0  0
  4 22  1  0  0  0  0
  5 23  1  0  0  0  0
  5 24  1  0  0  0  0
  6 25  1  0  0  0  0
  6 26  1  0  0  0  0
  7 27  1  0  0  0  0
  7 28  1  0  0  0  0
  8 29  1  0  0  0  0
  8 30  1  0  0  0  0
  8 31  1  0  0  0  0
 11 32  1  0  0  0  0
 12 33  1  0  0  0  0
 12 34  1  0  0  0  0
 12 35  1  0  0  0  0
 13 36  1  0  0  0  0
 14 37  1  0  0  0  0
 14 38  1  0  0  0  0
 14 39  1  0  0  0  0
M  CHG  1   1   1
M  END
