 xtb: 6.7.1 (edcfbbe)
          12202407033D

 28 28  0     0  0            999 V2000
    1.2188   -0.4572    0.4142 C   0  0  0  0  0  0  0  0  0  0  0  0
    0.3145    0.3734    1.3213 C   0  0  0  0  0  0  0  0  0  0  0  0
    0.8727    1.7640    1.6538 C   0  0  0  0  0  0  0  0  0  0  0  0
    0.3445    2.9132    0.8483 N   0  0  0  0  0  0  0  0  0  0  0  0
    0.5567    2.6551   -0.5864 C   0  0  0  0  0  0  0  0  0  0  0  0
   -1.0998    3.1290    1.1492 C   0  0  0  0  0  0  0  0  0  0  0  0
   -1.6224    4.4580    0.5920 C   0  0  0  0  0  0  0  0  0  0  0  0
   -0.8744    5.5363    1.0853 O   0  0  0  0  0  0  0  0  0  0  0  0
    0.4738    5.4272    0.7170 C   0  0  0  0  0  0  0  0  0  0  0  0
    1.0895    4.1370    1.2711 C   0  0  0  0  0  0  0  0  0  0  0  0
    1.3259   -0.0328   -0.5795 H   0  0  0  0  0  0  0  0  0  0  0  0
    0.8003   -1.4535    0.3051 H   0  0  0  0  0  0  0  0  0  0  0  0
    2.2070   -0.5607    0.8544 H   0  0  0  0  0  0  0  0  0  0  0  0
   -0.6845    0.4378    0.8910 H   0  0  0  0  0  0  0  0  0  0  0  0
    0.2087   -0.1652    2.2638 H   0  0  0  0  0  0  0  0  0  0  0  0
    0.6673    1.9957    2.7004 H   0  0  0  0  0  0  0  0  0  0  0  0
    1.9572    1.7480    1.5224 H   0  0  0  0  0  0  0  0  0  0  0  0
    1.6091    2.4451   -0.7673 H   0  0  0  0  0  0  0  0  0  0  0  0
   -0.0376    1.8024   -0.9043 H   0  0  0  0  0  0  0  0  0  0  0  0
    0.2685    3.5161   -1.1834 H   0  0  0  0  0  0  0  0  0  0  0  0
   -1.2139    3.1461    2.2352 H   0  0  0  0  0  0  0  0  0  0  0  0
   -1.6867    2.3059    0.7438 H   0  0  0  0  0  0  0  0  0  0  0  0
   -2.6460    4.6102    0.9391 H   0  0  0  0  0  0  0  0  0  0  0  0
   -1.6267    4.4562   -0.5071 H   0  0  0  0  0  0  0  0  0  0  0  0
    0.5857    5.4902   -0.3746 H   0  0  0  0  0  0  0  0  0  0  0  0
    0.9847    6.2828    1.1625 H   0  0  0  0  0  0  0  0  0  0  0  0
    2.1287    4.0515    0.9520 H   0  0  0  0  0  0  0  0  0  0  0  0
    1.0547    4.1888    2.3614 H   0  0  0  0  0  0  0  0  0  0  0  0
  1  2  1  0  0  0  0
  2  3  1  0  0  0  0
  3  4  1  0  0  0  0
  4  5  1  0  0  0  0
  4  6  1  0  0  0  0
  6  7  1  0  0  0  0
  7  8  1  0  0  0  0
  8  9  1  0  0  0  0
  4 10  1  0  0  0  0
  9 10  1  0  0  0  0
  1 11  1  0  0  0  0
  1 12  1  0  0  0  0
  1 13  1  0  0  0  0
  2 14  1  0  0  0  0
  2 15  1  0  0  0  0
  3 16  1  0  0  0  0
  3 17  1  0  0  0  0
  5 18  1  0  0  0  0
  5 19  1  0  0  0  0
  5 20  1  0  0  0  0
  6 21  1  0  0  0  0
  6 22  1  0  0  0  0
  7 23  1  0  0  0  0
  7 24  1  0  0  0  0
  9 25  1  0  0  0  0
  9 26  1  0  0  0  0
 10 27  1  0  0  0  0
 10 28  1  0  0  0  0
M  CHG  1   1   1
M  END
