 xtb: 6.7.1 (edcfbbe)
          12202407033D

 23 23  0     0  0            999 V2000
    2.5617    0.4740    2.0153 O   0  0  0  0  0  0  0  0  0  0  0  0
    2.8741   -0.1011    1.0143 C   0  0  0  0  0  0  0  0  0  0  0  0
    3.7414    0.6477   -0.0533 C   0  0  0  0  0  0  0  0  0  0  0  0
    4.3682    1.7763    0.5787 N   0  0  0  0  0  0  0  0  0  0  0  0
    3.5777    2.7429    1.0691 C   0  0  0  0  0  0  0  0  0  0  0  0
    4.1009    3.7699    1.8299 C   0  0  0  0  0  0  0  0  0  0  0  0
    5.4628    3.7998    2.0893 C   0  0  0  0  0  0  0  0  0  0  0  0
    6.2652    2.7899    1.5670 C   0  0  0  0  0  0  0  0  0  0  0  0
    5.6866    1.7842    0.8267 C   0  0  0  0  0  0  0  0  0  0  0  0
    2.5122   -1.4980    0.6321 C   0  0  0  0  0  0  0  0  0  0  0  0
    1.4378   -2.0814    1.5425 C   0  0  0  0  0  0  0  0  0  0  0  0
    4.4831   -0.0218   -0.4878 H   0  0  0  0  0  0  0  0  0  0  0  0
    3.0563    0.9800   -0.8388 H   0  0  0  0  0  0  0  0  0  0  0  0
    2.5257    2.6974    0.8337 H   0  0  0  0  0  0  0  0  0  0  0  0
    3.4433    4.5329    2.2143 H   0  0  0  0  0  0  0  0  0  0  0  0
    5.8937    4.5909    2.6823 H   0  0  0  0  0  0  0  0  0  0  0  0
    7.3291    2.7779    1.7412 H   0  0  0  0  0  0  0  0  0  0  0  0
    6.2739    0.9745    0.4192 H   0  0  0  0  0  0  0  0  0  0  0  0
    2.1929   -1.5136   -0.4131 H   0  0  0  0  0  0  0  0  0  0  0  0
    3.4224   -2.1033    0.6950 H   0  0  0  0  0  0  0  0  0  0  0  0
    0.5164   -1.5113    1.4600 H   0  0  0  0  0  0  0  0  0  0  0  0
    1.2355   -3.1113    1.2650 H   0  0  0  0  0  0  0  0  0  0  0  0
    1.7624   -2.0552    2.5793 H   0  0  0  0  0  0  0  0  0  0  0  0
  1  2  2  0  0  0  0
  2  3  1  0  0  0  0
  3  4  1  0  0  0  0
  4  5  4  0  0  0  0
  5  6  4  0  0  0  0
  6  7  4  0  0  0  0
  7  8  4  0  0  0  0
  4  9  4  0  0  0  0
  8  9  4  0  0  0  0
  2 10  1  0  0  0  0
 10 11  1  0  0  0  0
  3 12  1  0  0  0  0
  3 13  1  0  0  0  0
  5 14  1  0  0  0  0
  6 15  1  0  0  0  0
  7 16  1  0  0  0  0
  8 17  1  0  0  0  0
  9 18  1  0  0  0  0
 10 19  1  0  0  0  0
 10 20  1  0  0  0  0
 11 21  1  0  0  0  0
 11 22  1  0  0  0  0
 11 23  1  0  0  0  0
M  CHG  1   1   1
M  END
