 xtb: 6.7.1 (edcfbbe)
          12202407033D

 22 22  0     0  0            999 V2000
    1.3346   -1.0008    1.3008 N   0  0  0  0  0  0  0  0  0  0  0  0
    2.2708   -0.5604    0.8189 C   0  0  0  0  0  0  0  0  0  0  0  0
    3.5042   -0.1142    0.2122 C   0  0  0  0  0  0  0  0  0  0  0  0
    4.6536   -1.0605    0.6108 C   0  0  0  0  0  0  0  0  0  0  0  0
    4.2822   -2.4416    0.3463 N   0  0  0  0  0  0  0  0  0  0  0  0
    3.6732   -3.1626    1.2980 C   0  0  0  0  0  0  0  0  0  0  0  0
    3.2177   -4.4352    1.0478 C   0  0  0  0  0  0  0  0  0  0  0  0
    3.3764   -5.0072   -0.2177 C   0  0  0  0  0  0  0  0  0  0  0  0
    4.0247   -4.2271   -1.1854 C   0  0  0  0  0  0  0  0  0  0  0  0
    4.4574   -2.9620   -0.8790 C   0  0  0  0  0  0  0  0  0  0  0  0
    2.8886   -6.3662   -0.5321 C   0  0  0  0  0  0  0  0  0  0  0  0
    3.3699   -0.0925   -0.8732 H   0  0  0  0  0  0  0  0  0  0  0  0
    3.7300    0.8989    0.5513 H   0  0  0  0  0  0  0  0  0  0  0  0
    5.5522   -0.8081    0.0437 H   0  0  0  0  0  0  0  0  0  0  0  0
    4.8674   -0.9516    1.6766 H   0  0  0  0  0  0  0  0  0  0  0  0
    3.5503   -2.7050    2.2684 H   0  0  0  0  0  0  0  0  0  0  0  0
    2.7300   -4.9829    1.8392 H   0  0  0  0  0  0  0  0  0  0  0  0
    4.1834   -4.6162   -2.1792 H   0  0  0  0  0  0  0  0  0  0  0  0
    4.9566   -2.3443   -1.6109 H   0  0  0  0  0  0  0  0  0  0  0  0
    3.7119   -6.9927   -0.8751 H   0  0  0  0  0  0  0  0  0  0  0  0
    2.4200   -6.8342    0.3281 H   0  0  0  0  0  0  0  0  0  0  0  0
    2.1680   -6.3244   -1.3490 H   0  0  0  0  0  0  0  0  0  0  0  0
  1  2  3  0  0  0  0
  2  3  1  0  0  0  0
  3  4  1  0  0  0  0
  4  5  1  0  0  0  0
  5  6  4  0  0  0  0
  6  7  4  0  0  0  0
  7  8  4  0  0  0  0
  8  9  4  0  0  0  0
  5 10  4  0  0  0  0
  9 10  2  0  0  0  0
  8 11  1  0  0  0  0
  3 12  1  0  0  0  0
  3 13  1  0  0  0  0
  4 14  1  0  0  0  0
  4 15  1  0  0  0  0
  6 16  1  0  0  0  0
  7 17  1  0  0  0  0
  9 18  1  0  0  0  0
 10 19  1  0  0  0  0
 11 20  1  0  0  0  0
 11 21  1  0  0  0  0
 11 22  1  0  0  0  0
M  CHG  1   1   1
M  END
