 xtb: 6.7.1 (edcfbbe)
          12202407033D

 31 31  0     0  0            999 V2000
    0.2052    0.0549   -0.0761 C   0  0  0  0  0  0  0  0  0  0  0  0
    0.5413    0.3486   -1.5287 C   0  0  0  0  0  0  0  0  0  0  0  0
    1.4865   -0.6102   -2.1880 N   0  0  0  0  0  0  0  0  0  0  0  0
    0.8878   -2.0629   -2.1023 C   0  0  0  0  0  0  0  0  0  0  0  0
    1.6265   -3.0873   -2.9725 C   0  0  0  0  0  0  0  0  0  0  0  0
    1.0089   -3.3085   -4.3552 C   0  0  0  0  0  0  0  0  0  0  0  0
   -0.4941   -3.5070   -4.1961 C   0  0  0  0  0  0  0  0  0  0  0  0
   -1.0744   -2.2770   -3.5182 C   0  0  0  0  0  0  0  0  0  0  0  0
   -0.4735   -2.0218   -2.2437 O   0  0  0  0  0  0  0  0  0  0  0  0
    1.6887   -0.1536   -3.5741 C   0  0  0  0  0  0  0  0  0  0  0  0
    2.7891   -0.5787   -1.4997 C   0  0  0  0  0  0  0  0  0  0  0  0
   -0.3334   -0.8816    0.0283 H   0  0  0  0  0  0  0  0  0  0  0  0
   -0.4503    0.8483    0.2743 H   0  0  0  0  0  0  0  0  0  0  0  0
    1.0809    0.0508    0.5658 H   0  0  0  0  0  0  0  0  0  0  0  0
   -0.3846    0.3438   -2.1052 H   0  0  0  0  0  0  0  0  0  0  0  0
    0.9931    1.3396   -1.6049 H   0  0  0  0  0  0  0  0  0  0  0  0
    1.0604   -2.3146   -1.0483 H   0  0  0  0  0  0  0  0  0  0  0  0
    1.5604   -4.0344   -2.4315 H   0  0  0  0  0  0  0  0  0  0  0  0
    2.6847   -2.8448   -3.0524 H   0  0  0  0  0  0  0  0  0  0  0  0
    1.1979   -2.4699   -5.0265 H   0  0  0  0  0  0  0  0  0  0  0  0
    1.4626   -4.1934   -4.8004 H   0  0  0  0  0  0  0  0  0  0  0  0
   -0.9733   -3.6447   -5.1636 H   0  0  0  0  0  0  0  0  0  0  0  0
   -0.6911   -4.3884   -3.5847 H   0  0  0  0  0  0  0  0  0  0  0  0
   -0.9762   -1.4009   -4.1717 H   0  0  0  0  0  0  0  0  0  0  0  0
   -2.1309   -2.4121   -3.2826 H   0  0  0  0  0  0  0  0  0  0  0  0
    2.0959    0.8572   -3.5717 H   0  0  0  0  0  0  0  0  0  0  0  0
    2.3915   -0.8020   -4.0908 H   0  0  0  0  0  0  0  0  0  0  0  0
    0.7443   -0.1405   -4.1121 H   0  0  0  0  0  0  0  0  0  0  0  0
    3.1479    0.4479   -1.4436 H   0  0  0  0  0  0  0  0  0  0  0  0
    2.7040   -0.9750   -0.4911 H   0  0  0  0  0  0  0  0  0  0  0  0
    3.5245   -1.1692   -2.0413 H   0  0  0  0  0  0  0  0  0  0  0  0
  1  2  1  0  0  0  0
  2  3  1  0  0  0  0
  3  4  1  0  0  0  0
  4  5  1  0  0  0  0
  5  6  1  0  0  0  0
  6  7  1  0  0  0  0
  7  8  1  0  0  0  0
  4  9  1  0  0  0  0
  8  9  1  0  0  0  0
  3 10  1  0  0  0  0
  3 11  1  0  0  0  0
  1 12  1  0  0  0  0
  1 13  1  0  0  0  0
  1 14  1  0  0  0  0
  2 15  1  0  0  0  0
  2 16  1  0  0  0  0
  4 17  1  0  0  0  0
  5 18  1  0  0  0  0
  5 19  1  0  0  0  0
  6 20  1  0  0  0  0
  6 21  1  0  0  0  0
  7 22  1  0  0  0  0
  7 23  1  0  0  0  0
  8 24  1  0  0  0  0
  8 25  1  0  0  0  0
 10 26  1  0  0  0  0
 10 27  1  0  0  0  0
 10 28  1  0  0  0  0
 11 29  1  0  0  0  0
 11 30  1  0  0  0  0
 11 31  1  0  0  0  0
M  CHG  1   1   1
M  END
