 xtb: 6.7.1 (edcfbbe)
          12202407033D

 96 99  0     0  0            999 V2000
    0.9049    0.2541   -1.2311 C   0  0  0  0  0  0  0  0  0  0  0  0
    0.2322   -1.0311   -1.6982 C   0  0  0  0  0  0  0  0  0  0  0  0
    0.7907   -2.2849   -1.0214 C   0  0  0  0  0  0  0  0  0  0  0  0
    0.4951   -2.3873    0.4782 C   0  0  0  0  0  0  0  0  0  0  0  0
   -0.9763   -2.6868    0.7852 C   0  0  0  0  0  0  0  0  0  0  0  0
   -1.3379   -4.1579    0.6202 C   0  0  0  0  0  0  0  0  0  0  0  0
   -0.9015   -5.0796    1.6608 N   0  0  0  0  0  0  0  0  0  0  0  0
   -0.2556   -4.8427    2.8578 C   0  0  0  0  0  0  0  0  0  0  0  0
    0.2874   -3.7158    3.4625 C   0  0  0  0  0  0  0  0  0  0  0  0
    0.8909   -3.8537    4.7036 C   0  0  0  0  0  0  0  0  0  0  0  0
    1.5673   -2.4595    5.4501 Cl  0  0  0  0  0  0  0  0  0  0  0  0
    0.9617   -5.0915    5.3540 C   0  0  0  0  0  0  0  0  0  0  0  0
    0.4263   -6.2231    4.7625 C   0  0  0  0  0  0  0  0  0  0  0  0
   -0.1735   -6.0845    3.5218 C   0  0  0  0  0  0  0  0  0  0  0  0
   -0.7751   -7.0253    2.7231 N   0  0  0  0  0  0  0  0  0  0  0  0
   -1.2102   -6.4209    1.5828 C   0  0  0  0  0  0  0  0  0  0  0  0
   -1.8479   -6.9710    0.4691 C   0  0  0  0  0  0  0  0  0  0  0  0
   -2.2494   -8.2639    0.1516 C   0  0  0  0  0  0  0  0  0  0  0  0
   -2.8538   -8.4827   -1.0785 C   0  0  0  0  0  0  0  0  0  0  0  0
   -3.3649   -9.6087   -1.7226 C   0  0  0  0  0  0  0  0  0  0  0  0
   -3.3602  -10.9316   -1.3748 N   0  0  0  0  0  0  0  0  0  0  0  0
   -2.8482  -11.5854   -0.1971 C   0  0  0  0  0  0  0  0  0  0  0  0
   -3.9766  -11.9527    0.7758 C   0  0  0  0  0  0  0  0  0  0  0  0
   -3.4564  -12.8272    1.9142 C   0  0  0  0  0  0  0  0  0  0  0  0
   -2.4814  -12.0547    2.7733 C   0  0  0  0  0  0  0  0  0  0  0  0
   -2.4370  -10.8458    2.7847 O   0  0  0  0  0  0  0  0  0  0  0  0
   -1.6802  -12.8218    3.4773 O   0  0  0  0  0  0  0  0  0  0  0  0
   -3.9944  -11.6568   -2.3605 C   0  0  0  0  0  0  0  0  0  0  0  0
   -4.3935  -10.7494   -3.3529 C   0  0  0  0  0  0  0  0  0  0  0  0
   -3.9824   -9.5029   -2.9469 N   0  0  0  0  0  0  0  0  0  0  0  0
   -4.2188   -8.3301   -3.7584 C   0  0  0  0  0  0  0  0  0  0  0  0
   -5.6279   -7.7589   -3.5598 C   0  0  0  0  0  0  0  0  0  0  0  0
   -5.8108   -6.9733   -2.2605 C   0  0  0  0  0  0  0  0  0  0  0  0
   -5.1017   -5.6163   -2.2260 C   0  0  0  0  0  0  0  0  0  0  0  0
   -5.5746   -4.6096   -3.2772 C   0  0  0  0  0  0  0  0  0  0  0  0
   -7.0532   -4.2604   -3.1612 C   0  0  0  0  0  0  0  0  0  0  0  0
   -5.0643  -11.1748   -4.4879 C   0  0  0  0  0  0  0  0  0  0  0  0
   -5.3197  -12.5329   -4.6106 C   0  0  0  0  0  0  0  0  0  0  0  0
   -4.9101  -13.4416   -3.6233 C   0  0  0  0  0  0  0  0  0  0  0  0
   -4.2421  -13.0134   -2.4851 C   0  0  0  0  0  0  0  0  0  0  0  0
   -5.2402  -15.1171   -3.8164 Cl  0  0  0  0  0  0  0  0  0  0  0  0
   -6.1530  -13.1039   -6.0009 Cl  0  0  0  0  0  0  0  0  0  0  0  0
   -0.9078   -8.4119    3.0802 C   0  0  0  0  0  0  0  0  0  0  0  0
    0.1809   -9.2894    2.4448 C   0  0  0  0  0  0  0  0  0  0  0  0
    1.4013   -9.4462    3.3489 C   0  0  0  0  0  0  0  0  0  0  0  0
    1.0666  -10.2537    4.5809 C   0  0  0  0  0  0  0  0  0  0  0  0
    0.2971  -11.1836    4.6139 O   0  0  0  0  0  0  0  0  0  0  0  0
    1.7234   -9.8264    5.6501 O   0  0  0  0  0  0  0  0  0  0  0  0
    1.7197   -5.2204    6.8907 Cl  0  0  0  0  0  0  0  0  0  0  0  0
    0.6909    0.4575   -0.1850 H   0  0  0  0  0  0  0  0  0  0  0  0
    0.5452    1.0973   -1.8151 H   0  0  0  0  0  0  0  0  0  0  0  0
    1.9830    0.1872   -1.3565 H   0  0  0  0  0  0  0  0  0  0  0  0
   -0.8442   -0.9566   -1.5301 H   0  0  0  0  0  0  0  0  0  0  0  0
    0.3840   -1.1335   -2.7748 H   0  0  0  0  0  0  0  0  0  0  0  0
    0.3949   -3.1669   -1.5317 H   0  0  0  0  0  0  0  0  0  0  0  0
    1.8739   -2.2923   -1.1575 H   0  0  0  0  0  0  0  0  0  0  0  0
    1.1247   -3.1734    0.8999 H   0  0  0  0  0  0  0  0  0  0  0  0
    0.7796   -1.4485    0.9526 H   0  0  0  0  0  0  0  0  0  0  0  0
   -1.2636   -2.3448    1.7779 H   0  0  0  0  0  0  0  0  0  0  0  0
   -1.5981   -2.1356    0.0779 H   0  0  0  0  0  0  0  0  0  0  0  0
   -2.4296   -4.2404    0.5576 H   0  0  0  0  0  0  0  0  0  0  0  0
   -0.9105   -4.5030   -0.3276 H   0  0  0  0  0  0  0  0  0  0  0  0
    0.2768   -2.7395    3.0191 H   0  0  0  0  0  0  0  0  0  0  0  0
    0.4898   -7.1682    5.2740 H   0  0  0  0  0  0  0  0  0  0  0  0
   -2.0616   -6.2516   -0.3063 H   0  0  0  0  0  0  0  0  0  0  0  0
   -2.1148   -9.0705    0.8485 H   0  0  0  0  0  0  0  0  0  0  0  0
   -2.9710   -7.5843   -1.6658 H   0  0  0  0  0  0  0  0  0  0  0  0
   -2.3360  -12.4956   -0.5250 H   0  0  0  0  0  0  0  0  0  0  0  0
   -2.1186  -10.9426    0.2891 H   0  0  0  0  0  0  0  0  0  0  0  0
   -4.4008  -11.0385    1.1938 H   0  0  0  0  0  0  0  0  0  0  0  0
   -4.7622  -12.4824    0.2368 H   0  0  0  0  0  0  0  0  0  0  0  0
   -4.2841  -13.1397    2.5539 H   0  0  0  0  0  0  0  0  0  0  0  0
   -2.9659  -13.7286    1.5462 H   0  0  0  0  0  0  0  0  0  0  0  0
   -1.0316  -12.2974    4.0003 H   0  0  0  0  0  0  0  0  0  0  0  0
   -3.4612   -7.5748   -3.5533 H   0  0  0  0  0  0  0  0  0  0  0  0
   -4.0971   -8.6406   -4.7992 H   0  0  0  0  0  0  0  0  0  0  0  0
   -5.8585   -7.1160   -4.4085 H   0  0  0  0  0  0  0  0  0  0  0  0
   -6.3374   -8.5887   -3.5744 H   0  0  0  0  0  0  0  0  0  0  0  0
   -6.8776   -6.8089   -2.1092 H   0  0  0  0  0  0  0  0  0  0  0  0
   -5.4570   -7.5767   -1.4210 H   0  0  0  0  0  0  0  0  0  0  0  0
   -5.2621   -5.1843   -1.2353 H   0  0  0  0  0  0  0  0  0  0  0  0
   -4.0238   -5.7522   -2.3477 H   0  0  0  0  0  0  0  0  0  0  0  0
   -4.9870   -3.6968   -3.1533 H   0  0  0  0  0  0  0  0  0  0  0  0
   -5.3671   -4.9887   -4.2794 H   0  0  0  0  0  0  0  0  0  0  0  0
   -7.2906   -3.9353   -2.1507 H   0  0  0  0  0  0  0  0  0  0  0  0
   -7.3001   -3.4533   -3.8460 H   0  0  0  0  0  0  0  0  0  0  0  0
   -7.6813   -5.1122   -3.4076 H   0  0  0  0  0  0  0  0  0  0  0  0
   -5.3891  -10.4980   -5.2595 H   0  0  0  0  0  0  0  0  0  0  0  0
   -3.9370  -13.7330   -1.7450 H   0  0  0  0  0  0  0  0  0  0  0  0
   -0.8550   -8.4849    4.1666 H   0  0  0  0  0  0  0  0  0  0  0  0
   -1.8972   -8.7613    2.7920 H   0  0  0  0  0  0  0  0  0  0  0  0
   -0.2386  -10.2781    2.2649 H   0  0  0  0  0  0  0  0  0  0  0  0
    0.4812   -8.8620    1.4876 H   0  0  0  0  0  0  0  0  0  0  0  0
    2.1827   -9.9967    2.8183 H   0  0  0  0  0  0  0  0  0  0  0  0
    1.8167   -8.4855    3.6519 H   0  0  0  0  0  0  0  0  0  0  0  0
    1.5505  -10.3773    6.4318 H   0  0  0  0  0  0  0  0  0  0  0  0
  1  2  1  0  0  0  0
  2  3  1  0  0  0  0
  3  4  1  0  0  0  0
  4  5  1  0  0  0  0
  5  6  1  0  0  0  0
  6  7  1  0  0  0  0
  7  8  1  0  0  0  0
  8  9  4  0  0  0  0
  9 10  4  0  0  0  0
 10 11  1  0  0  0  0
 10 12  4  0  0  0  0
 12 13  4  0  0  0  0
  8 14  4  0  0  0  0
 13 14  4  0  0  0  0
 14 15  1  0  0  0  0
  7 16  1  0  0  0  0
 15 16  4  0  0  0  0
 16 17  4  0  0  0  0
 17 18  4  0  0  0  0
 18 19  4  0  0  0  0
 19 20  4  0  0  0  0
 20 21  1  0  0  0  0
 21 22  1  0  0  0  0
 22 23  1  0  0  0  0
 23 24  1  0  0  0  0
 24 25  1  0  0  0  0
 25 26  2  0  0  0  0
 25 27  4  0  0  0  0
 21 28  1  0  0  0  0
 28 29  4  0  0  0  0
 20 30  1  0  0  0  0
 29 30  1  0  0  0  0
 30 31  1  0  0  0  0
 31 32  1  0  0  0  0
 32 33  1  0  0  0  0
 33 34  1  0  0  0  0
 34 35  1  0  0  0  0
 35 36  1  0  0  0  0
 29 37  4  0  0  0  0
 37 38  4  0  0  0  0
 38 39  4  0  0  0  0
 28 40  4  0  0  0  0
 39 40  4  0  0  0  0
 39 41  1  0  0  0  0
 38 42  1  0  0  0  0
 15 43  1  0  0  0  0
 43 44  1  0  0  0  0
 44 45  1  0  0  0  0
 45 46  1  0  0  0  0
 46 47  2  0  0  0  0
 46 48  1  0  0  0  0
 12 49  1  0  0  0  0
  1 50  1  0  0  0  0
  1 51  1  0  0  0  0
  1 52  1  0  0  0  0
  2 53  1  0  0  0  0
  2 54  1  0  0  0  0
  3 55  1  0  0  0  0
  3 56  1  0  0  0  0
  4 57  1  0  0  0  0
  4 58  1  0  0  0  0
  5 59  1  0  0  0  0
  5 60  1  0  0  0  0
  6 61  1  0  0  0  0
  6 62  1  0  0  0  0
  9 63  1  0  0  0  0
 13 64  1  0  0  0  0
 17 65  1  0  0  0  0
 18 66  1  0  0  0  0
 19 67  1  0  0  0  0
 22 68  1  0  0  0  0
 22 69  1  0  0  0  0
 23 70  1  0  0  0  0
 23 71  1  0  0  0  0
 24 72  1  0  0  0  0
 24 73  1  0  0  0  0
 27 74  1  0  0  0  0
 31 75  1  0  0  0  0
 31 76  1  0  0  0  0
 32 77  1  0  0  0  0
 32 78  1  0  0  0  0
 33 79  1  0  0  0  0
 33 80  1  0  0  0  0
 34 81  1  0  0  0  0
 34 82  1  0  0  0  0
 35 83  1  0  0  0  0
 35 84  1  0  0  0  0
 36 85  1  0  0  0  0
 36 86  1  0  0  0  0
 36 87  1  0  0  0  0
 37 88  1  0  0  0  0
 40 89  1  0  0  0  0
 43 90  1  0  0  0  0
 43 91  1  0  0  0  0
 44 92  1  0  0  0  0
 44 93  1  0  0  0  0
 45 94  1  0  0  0  0
 45 95  1  0  0  0  0
 48 96  1  0  0  0  0
M  CHG  1   1   1
M  END
