42

C         -0.05976       -0.01614        0.98692
C          0.00968       -1.45238        0.49635
O          0.85469       -2.29695        1.27527
C          2.23519       -1.94315        1.34645
C          3.07407       -2.59711        0.24218
N          2.76798       -2.10016       -1.10755
C          2.17072       -2.84151       -2.05220
N          1.98235       -2.08265       -3.14048
C          2.45877       -0.79597       -2.89356
C          3.00243       -0.82112       -1.60334
C          3.59875        0.29659       -1.02791
C          3.57978        1.46930       -1.79499
C          3.00044        1.51406       -3.08372
C          2.44923        0.35991       -3.67010
C          2.97701        2.80722       -3.85451
C          1.40524       -2.57902       -4.38574
C          0.05213       -1.96923       -4.57566
C         -0.31442       -1.27269       -5.66369
C         -1.66646       -0.66107       -5.85427
H         -0.21706        0.02320        2.06872
H         -0.87375        0.51755        0.48674
H          0.86495        0.52616        0.76852
H         -0.99388       -1.88678        0.55906
H          0.29555       -1.48922       -0.55628
H          2.37816       -0.86145        1.38034
H          2.59615       -2.33045        2.30598
H          4.14085       -2.42615        0.42424
H          2.90205       -3.67986        0.24444
H          1.88021       -3.88061       -1.94735
H          4.03781        0.27141       -0.03883
H          4.01884        2.37447       -1.37156
H          2.01478        0.37169       -4.66178
H          3.65519        2.74708       -4.71079
H          1.96192        3.01416       -4.21002
H          3.28405        3.65164       -3.22878
H          2.09248       -2.34303       -5.20552
H          1.31345       -3.66892       -4.32741
H         -0.66546       -2.11984       -3.77204
H          0.38567       -1.12340       -6.48494
H         -1.56817        0.42094       -5.98539
H         -2.13915       -1.07490       -6.75011
H         -2.32730       -0.84391       -5.00145
