34

C          1.09332        0.28302        0.22784
C          0.65385        1.20061       -0.90301
C          1.10248        0.72596       -2.28737
C          0.62656       -0.67173       -2.69248
C         -0.89172       -0.86530       -2.72905
C         -1.62333       -0.01363       -3.76484
N         -1.10780       -0.18968       -5.13331
C         -0.49001        0.81200       -5.86877
C         -0.13372        0.26533       -7.06482
N         -0.54835       -1.05386       -7.03958
C         -1.18327       -1.31708       -5.87660
C         -1.81519       -2.61518       -5.49306
C         -0.33278       -2.01911       -8.11528
H          0.58469       -0.68441        0.17901
H          0.85042        0.73474        1.19494
H          2.17350        0.10875        0.19679
H         -0.43460        1.32052       -0.87516
H          1.07894        2.19637       -0.72769
H          0.77219        1.45864       -3.03224
H          2.19940        0.73492       -2.32179
H          1.04715       -0.91094       -3.67672
H          1.05360       -1.41196       -2.00541
H         -1.08793       -1.92401       -2.92884
H         -1.32092       -0.66725       -1.74048
H         -2.68908       -0.26887       -3.77783
H         -1.55928        1.04725       -3.49753
H         -0.37375        1.79129       -5.43777
H          0.36975        0.64726       -7.93590
H         -1.04128       -3.21432       -5.01170
H         -2.64486       -2.40762       -4.81779
H         -2.18201       -3.09742       -6.39924
H          0.17044       -2.90007       -7.70768
H         -1.29956       -2.30105       -8.54007
H          0.29182       -1.58088       -8.89837
