86

C          1.01285       -0.36066       -0.07750
C          0.78665       -0.07746       -1.55149
N          0.57405       -1.34582       -2.26027
S          0.15381       -1.29216       -3.88408
O          0.67552       -0.07724       -4.46239
O          0.41604       -2.59865       -4.44130
C         -1.61536       -1.11690       -3.79151
C         -2.43178       -2.24687       -3.59552
C         -3.83059       -2.12962       -3.54405
C         -4.35161       -0.84107       -3.68520
C         -3.53277        0.26719       -3.88005
C         -2.14926        0.16276       -3.97095
N         -4.37080        1.37707       -3.96493
C         -3.88031        2.72072       -4.31273
C         -3.55166        3.57679       -3.07972
C         -2.12399        3.44821       -2.52618
C         -1.01414        3.89182       -3.48004
S         -0.45909        5.58216       -3.26567
O          0.12050        5.68701       -1.94649
O          0.27136        5.96304       -4.45100
N         -1.86736        6.45859       -3.21329
C         -2.42098        7.16409       -4.29823
O         -2.90956        8.26641       -4.09480
C         -2.62670        6.43166       -5.59498
C         -5.66207        0.99547       -3.77079
N         -5.65750       -0.36028       -3.70341
C         -6.85094       -1.21992       -3.65949
C         -7.35191       -1.41221       -2.24165
C         -6.91199        1.85306       -3.65991
C         -6.97496        3.18838       -3.61877
C         -8.16917        4.00139       -3.51506
C         -8.12463        5.33163       -3.71003
O         -6.91199        5.94468       -4.11812
C         -7.21270        7.27898       -4.28380
C         -8.55153        7.50282       -3.95727
N         -9.12426        6.28815       -3.59459
C        -10.55074        6.11152       -3.40977
C        -11.23537        5.80390       -4.73327
C         -9.05202        8.78537       -4.02115
C         -8.19551        9.83761       -4.42189
C         -6.85333        9.56686       -4.81038
C         -6.35505        8.26149       -4.71829
C         -5.92139       10.65774       -5.26834
C         -8.73636       11.24350       -4.44879
H          0.17560       -0.92161        0.35082
H          1.12024        0.57564        0.47898
H          1.92278       -0.95181        0.07077
H         -0.09092        0.56676       -1.66389
H          1.66176        0.43758       -1.95962
H          1.24547       -2.09554       -2.07645
H         -1.97408       -3.23210       -3.48927
H         -4.46609       -2.99523       -3.40019
H         -1.52154        1.02229       -4.16217
H         -3.01627        2.61685       -4.97504
H         -4.63113        3.20446       -4.94383
H         -3.73959        4.62482       -3.32867
H         -4.24391        3.32467       -2.26706
H         -2.06066        4.01043       -1.58675
H         -1.95845        2.40090       -2.25339
H         -0.12019        3.28358       -3.29584
H         -1.27988        3.76740       -4.53126
H         -1.90812        7.00001       -2.34637
H         -2.70395        7.15656       -6.40987
H         -1.81449        5.74395       -5.82505
H         -3.56073        5.86497       -5.53334
H         -7.62818       -0.78468       -4.29553
H         -6.60587       -2.19037       -4.10510
H         -7.62984       -0.45650       -1.78760
H         -8.23017       -2.06463       -2.23322
H         -6.57919       -1.86573       -1.61323
H         -7.84471        1.30347       -3.59951
H         -6.07411        3.78011       -3.63420
H         -9.10654        3.52560       -3.24696
H        -10.73691        5.29038       -2.70749
H        -11.00356        7.00032       -2.95550
H        -10.84628        4.87979       -5.17370
H        -12.31240        5.68073       -4.58392
H        -11.08147        6.60989       -5.45824
H        -10.08039        8.99527       -3.74829
H         -5.33112        8.02962       -4.97890
H         -6.42870       11.34573       -5.95163
H         -5.53961       11.21275       -4.40636
H         -5.06800       10.24282       -5.81674
H         -8.03686       11.93303       -3.96448
H         -8.90752       11.56217       -5.48123
H         -9.68322       11.31672       -3.90373
