 xtb: 6.7.1 (edcfbbe)
          12202407033D

 25 24  0     0  0            999 V2000
    1.4511    0.0624   -0.2605 O   0  0  0  0  0  0  0  0  0  0  0  0
    0.4149   -0.8776   -0.0800 C   0  0  0  0  0  0  0  0  0  0  0  0
    0.8901   -2.2884   -0.5316 C   0  0  0  0  0  0  0  0  0  0  0  0
    2.4259   -2.4277   -0.5920 C   0  0  0  0  0  0  0  0  0  0  0  0
    3.1508   -2.7377    0.6722 N   0  0  0  0  0  0  0  0  0  0  0  0
    3.0296   -4.1734    0.9920 C   0  0  0  0  0  0  0  0  0  0  0  0
    4.5752   -2.4120    0.4677 C   0  0  0  0  0  0  0  0  0  0  0  0
    2.6398   -1.9435    1.8017 C   0  0  0  0  0  0  0  0  0  0  0  0
    0.3388   -3.2922    0.2880 O   0  0  0  0  0  0  0  0  0  0  0  0
    1.0792    0.9506   -0.2616 H   0  0  0  0  0  0  0  0  0  0  0  0
    0.1149   -0.9194    0.9766 H   0  0  0  0  0  0  0  0  0  0  0  0
   -0.4667   -0.6030   -0.6687 H   0  0  0  0  0  0  0  0  0  0  0  0
    0.5653   -2.4304   -1.5722 H   0  0  0  0  0  0  0  0  0  0  0  0
    2.6690   -3.2195   -1.3017 H   0  0  0  0  0  0  0  0  0  0  0  0
    2.7933   -1.4749   -0.9787 H   0  0  0  0  0  0  0  0  0  0  0  0
    3.5125   -4.7724    0.2226 H   0  0  0  0  0  0  0  0  0  0  0  0
    3.5052   -4.3816    1.9482 H   0  0  0  0  0  0  0  0  0  0  0  0
    1.9778   -4.4454    1.0461 H   0  0  0  0  0  0  0  0  0  0  0  0
    4.6987   -1.3399    0.3240 H   0  0  0  0  0  0  0  0  0  0  0  0
    5.1546   -2.7179    1.3371 H   0  0  0  0  0  0  0  0  0  0  0  0
    4.9617   -2.9309   -0.4079 H   0  0  0  0  0  0  0  0  0  0  0  0
    2.6064   -0.8921    1.5224 H   0  0  0  0  0  0  0  0  0  0  0  0
    1.6418   -2.2868    2.0623 H   0  0  0  0  0  0  0  0  0  0  0  0
    3.2905   -2.0661    2.6648 H   0  0  0  0  0  0  0  0  0  0  0  0
   -0.6097   -3.3604    0.1357 H   0  0  0  0  0  0  0  0  0  0  0  0
  1  2  1  0  0  0  0
  2  3  1  0  0  0  0
  3  4  1  0  0  0  0
  4  5  1  0  0  0  0
  5  6  1  0  0  0  0
  5  7  1  0  0  0  0
  5  8  1  0  0  0  0
  3  9  1  0  0  0  0
  1 10  1  0  0  0  0
  2 11  1  0  0  0  0
  2 12  1  0  0  0  0
  3 13  1  0  0  0  0
  4 14  1  0  0  0  0
  4 15  1  0  0  0  0
  6 16  1  0  0  0  0
  6 17  1  0  0  0  0
  6 18  1  0  0  0  0
  7 19  1  0  0  0  0
  7 20  1  0  0  0  0
  7 21  1  0  0  0  0
  8 22  1  0  0  0  0
  8 23  1  0  0  0  0
  8 24  1  0  0  0  0
  9 25  1  0  0  0  0
M  CHG  1   1   1
M  END
