 xtb: 6.7.1 (edcfbbe)
          12202407043D

 37 36  0     0  0            999 V2000
    0.6643   -0.1508   -0.5749 C   0  0  0  0  0  0  0  0  0  0  0  0
    0.5720   -0.4874   -2.0605 C   0  0  0  0  0  0  0  0  0  0  0  0
   -0.0127   -1.4348    0.5423 P   0  0  0  0  0  0  0  0  0  0  0  0
    0.7003   -1.1771    2.2291 C   0  0  0  0  0  0  0  0  0  0  0  0
    0.2122    0.0264    2.7599 O   0  0  0  0  0  0  0  0  0  0  0  0
    1.0995    1.1351    2.7435 C   0  0  0  0  0  0  0  0  0  0  0  0
    2.4268    0.8884    3.4585 C   0  0  0  0  0  0  0  0  0  0  0  0
    3.2931    0.1797    2.5913 O   0  0  0  0  0  0  0  0  0  0  0  0
    4.6025    0.0458    3.1038 C   0  0  0  0  0  0  0  0  0  0  0  0
   -1.8164   -1.2641    0.7765 C   0  0  0  0  0  0  0  0  0  0  0  0
   -2.6146   -0.9320   -0.4797 C   0  0  0  0  0  0  0  0  0  0  0  0
    0.4914   -3.1169    0.0169 C   0  0  0  0  0  0  0  0  0  0  0  0
   -0.4298   -3.7706   -1.0083 C   0  0  0  0  0  0  0  0  0  0  0  0
    0.1271    0.7772   -0.3569 H   0  0  0  0  0  0  0  0  0  0  0  0
    1.7129   -0.0157   -0.2900 H   0  0  0  0  0  0  0  0  0  0  0  0
    1.1548   -1.3732   -2.2995 H   0  0  0  0  0  0  0  0  0  0  0  0
   -0.4552   -0.6440   -2.3776 H   0  0  0  0  0  0  0  0  0  0  0  0
    0.9769    0.3405   -2.6379 H   0  0  0  0  0  0  0  0  0  0  0  0
    0.3403   -1.9945    2.8677 H   0  0  0  0  0  0  0  0  0  0  0  0
    1.7957   -1.2029    2.1848 H   0  0  0  0  0  0  0  0  0  0  0  0
    1.3135    1.4505    1.7157 H   0  0  0  0  0  0  0  0  0  0  0  0
    0.5469    1.9233    3.2568 H   0  0  0  0  0  0  0  0  0  0  0  0
    2.8727    1.8567    3.7209 H   0  0  0  0  0  0  0  0  0  0  0  0
    2.2593    0.3208    4.3849 H   0  0  0  0  0  0  0  0  0  0  0  0
    4.6014   -0.5152    4.0438 H   0  0  0  0  0  0  0  0  0  0  0  0
    5.1739   -0.4963    2.3539 H   0  0  0  0  0  0  0  0  0  0  0  0
    5.0570    1.0261    3.2738 H   0  0  0  0  0  0  0  0  0  0  0  0
   -2.1680   -2.1982    1.2251 H   0  0  0  0  0  0  0  0  0  0  0  0
   -1.9315   -0.4703    1.5232 H   0  0  0  0  0  0  0  0  0  0  0  0
   -2.5122   -1.7020   -1.2399 H   0  0  0  0  0  0  0  0  0  0  0  0
   -3.6683   -0.8577   -0.2210 H   0  0  0  0  0  0  0  0  0  0  0  0
   -2.3100    0.0234   -0.8996 H   0  0  0  0  0  0  0  0  0  0  0  0
    1.5108   -3.0395   -0.3716 H   0  0  0  0  0  0  0  0  0  0  0  0
    0.5272   -3.7273    0.9246 H   0  0  0  0  0  0  0  0  0  0  0  0
   -0.4857   -3.1940   -1.9271 H   0  0  0  0  0  0  0  0  0  0  0  0
   -0.0457   -4.7573   -1.2561 H   0  0  0  0  0  0  0  0  0  0  0  0
   -1.4330   -3.8961   -0.6091 H   0  0  0  0  0  0  0  0  0  0  0  0
  1  2  1  0  0  0  0
  1  3  1  0  0  0  0
  3  4  1  0  0  0  0
  4  5  1  0  0  0  0
  5  6  1  0  0  0  0
  6  7  1  0  0  0  0
  7  8  1  0  0  0  0
  8  9  1  0  0  0  0
  3 10  1  0  0  0  0
 10 11  1  0  0  0  0
  3 12  1  0  0  0  0
 12 13  1  0  0  0  0
  1 14  1  0  0  0  0
  1 15  1  0  0  0  0
  2 16  1  0  0  0  0
  2 17  1  0  0  0  0
  2 18  1  0  0  0  0
  4 19  1  0  0  0  0
  4 20  1  0  0  0  0
  6 21  1  0  0  0  0
  6 22  1  0  0  0  0
  7 23  1  0  0  0  0
  7 24  1  0  0  0  0
  9 25  1  0  0  0  0
  9 26  1  0  0  0  0
  9 27  1  0  0  0  0
 10 28  1  0  0  0  0
 10 29  1  0  0  0  0
 11 30  1  0  0  0  0
 11 31  1  0  0  0  0
 11 32  1  0  0  0  0
 12 33  1  0  0  0  0
 12 34  1  0  0  0  0
 13 35  1  0  0  0  0
 13 36  1  0  0  0  0
 13 37  1  0  0  0  0
M  CHG  1   1   1
M  END
