 xtb: 6.7.1 (edcfbbe)
          12202407043D

 77 76  0     0  0            999 V2000
    1.5376    0.9337   -0.2252 C   0  0  0  0  0  0  0  0  0  0  0  0
    1.3778    0.3654   -1.6302 C   0  0  0  0  0  0  0  0  0  0  0  0
    1.5916   -1.1474   -1.6968 C   0  0  0  0  0  0  0  0  0  0  0  0
    0.5959   -1.9777   -0.8839 C   0  0  0  0  0  0  0  0  0  0  0  0
   -0.8727   -1.7927   -1.2719 C   0  0  0  0  0  0  0  0  0  0  0  0
   -1.1962   -2.0837   -2.7386 C   0  0  0  0  0  0  0  0  0  0  0  0
   -0.8290   -3.4902   -3.2144 C   0  0  0  0  0  0  0  0  0  0  0  0
   -1.5364   -4.6287   -2.4771 C   0  0  0  0  0  0  0  0  0  0  0  0
   -3.0633   -4.6182   -2.5791 C   0  0  0  0  0  0  0  0  0  0  0  0
   -3.6172   -4.6194   -4.0056 C   0  0  0  0  0  0  0  0  0  0  0  0
   -3.1316   -5.7714   -4.8869 C   0  0  0  0  0  0  0  0  0  0  0  0
   -3.5104   -7.1681   -4.3912 C   0  0  0  0  0  0  0  0  0  0  0  0
   -5.0137   -7.4473   -4.3305 C   0  0  0  0  0  0  0  0  0  0  0  0
   -5.7609   -7.2577   -5.6531 C   0  0  0  0  0  0  0  0  0  0  0  0
   -5.1976   -8.0480   -6.8364 C   0  0  0  0  0  0  0  0  0  0  0  0
   -5.2044   -9.5682   -6.6577 C   0  0  0  0  0  0  0  0  0  0  0  0
   -6.6053  -10.1913   -6.6288 C   0  0  0  0  0  0  0  0  0  0  0  0
   -7.3518  -10.1054   -7.9685 C   0  0  0  0  0  0  0  0  0  0  0  0
   -7.4551  -11.3686   -8.7578 N   0  0  0  0  0  0  0  0  0  0  0  0
   -8.1190  -12.4601   -7.9655 C   0  0  0  0  0  0  0  0  0  0  0  0
   -9.3629  -12.0558   -7.1890 C   0  0  0  0  0  0  0  0  0  0  0  0
   -8.2918  -11.1484   -9.9895 C   0  0  0  0  0  0  0  0  0  0  0  0
   -8.2424   -9.7781  -10.6527 C   0  0  0  0  0  0  0  0  0  0  0  0
   -6.0995  -11.8896   -9.1226 C   0  0  0  0  0  0  0  0  0  0  0  0
   -5.3022  -11.0803  -10.1329 C   0  0  0  0  0  0  0  0  0  0  0  0
    0.7562    0.5692    0.4366 H   0  0  0  0  0  0  0  0  0  0  0  0
    1.4801    2.0196   -0.2491 H   0  0  0  0  0  0  0  0  0  0  0  0
    2.5021    0.6513    0.1916 H   0  0  0  0  0  0  0  0  0  0  0  0
    0.3880    0.6182   -2.0145 H   0  0  0  0  0  0  0  0  0  0  0  0
    2.1114    0.8397   -2.2871 H   0  0  0  0  0  0  0  0  0  0  0  0
    1.5534   -1.4594   -2.7427 H   0  0  0  0  0  0  0  0  0  0  0  0
    2.5967   -1.3721   -1.3298 H   0  0  0  0  0  0  0  0  0  0  0  0
    0.8660   -3.0310   -0.9883 H   0  0  0  0  0  0  0  0  0  0  0  0
    0.7019   -1.7274    0.1734 H   0  0  0  0  0  0  0  0  0  0  0  0
   -1.4779   -2.4401   -0.6331 H   0  0  0  0  0  0  0  0  0  0  0  0
   -1.1733   -0.7653   -1.0567 H   0  0  0  0  0  0  0  0  0  0  0  0
   -2.2649   -1.9175   -2.8923 H   0  0  0  0  0  0  0  0  0  0  0  0
   -0.6690   -1.3649   -3.3692 H   0  0  0  0  0  0  0  0  0  0  0  0
   -1.0510   -3.5579   -4.2819 H   0  0  0  0  0  0  0  0  0  0  0  0
    0.2477   -3.6339   -3.1054 H   0  0  0  0  0  0  0  0  0  0  0  0
   -1.1557   -5.5761   -2.8663 H   0  0  0  0  0  0  0  0  0  0  0  0
   -1.2681   -4.5913   -1.4197 H   0  0  0  0  0  0  0  0  0  0  0  0
   -3.4473   -5.4875   -2.0398 H   0  0  0  0  0  0  0  0  0  0  0  0
   -3.4499   -3.7337   -2.0692 H   0  0  0  0  0  0  0  0  0  0  0  0
   -4.7083   -4.6379   -3.9500 H   0  0  0  0  0  0  0  0  0  0  0  0
   -3.3408   -3.6831   -4.4940 H   0  0  0  0  0  0  0  0  0  0  0  0
   -3.5270   -5.6221   -5.8944 H   0  0  0  0  0  0  0  0  0  0  0  0
   -2.0443   -5.7250   -4.9640 H   0  0  0  0  0  0  0  0  0  0  0  0
   -3.0298   -7.9053   -5.0394 H   0  0  0  0  0  0  0  0  0  0  0  0
   -3.1007   -7.3137   -3.3907 H   0  0  0  0  0  0  0  0  0  0  0  0
   -5.1595   -8.4685   -3.9687 H   0  0  0  0  0  0  0  0  0  0  0  0
   -5.4696   -6.7852   -3.5931 H   0  0  0  0  0  0  0  0  0  0  0  0
   -6.8105   -7.5205   -5.4974 H   0  0  0  0  0  0  0  0  0  0  0  0
   -5.7393   -6.2008   -5.9211 H   0  0  0  0  0  0  0  0  0  0  0  0
   -5.7640   -7.7708   -7.7302 H   0  0  0  0  0  0  0  0  0  0  0  0
   -4.1675   -7.7354   -7.0065 H   0  0  0  0  0  0  0  0  0  0  0  0
   -4.6081  -10.0163   -7.4551 H   0  0  0  0  0  0  0  0  0  0  0  0
   -4.7097   -9.8085   -5.7170 H   0  0  0  0  0  0  0  0  0  0  0  0
   -6.5236  -11.2211   -6.2833 H   0  0  0  0  0  0  0  0  0  0  0  0
   -7.1901   -9.6600   -5.8777 H   0  0  0  0  0  0  0  0  0  0  0  0
   -8.3709   -9.7566   -7.8055 H   0  0  0  0  0  0  0  0  0  0  0  0
   -6.8470   -9.3734   -8.5962 H   0  0  0  0  0  0  0  0  0  0  0  0
   -8.3725  -13.2535   -8.6722 H   0  0  0  0  0  0  0  0  0  0  0  0
   -7.3893  -12.8671   -7.2645 H   0  0  0  0  0  0  0  0  0  0  0  0
  -10.1202  -11.5883   -7.8127 H   0  0  0  0  0  0  0  0  0  0  0  0
   -9.8003  -12.9599   -6.7723 H   0  0  0  0  0  0  0  0  0  0  0  0
   -9.1293  -11.3943   -6.3606 H   0  0  0  0  0  0  0  0  0  0  0  0
   -7.9964  -11.9128  -10.7107 H   0  0  0  0  0  0  0  0  0  0  0  0
   -9.3306  -11.3350   -9.7152 H   0  0  0  0  0  0  0  0  0  0  0  0
   -7.2417   -9.4649  -10.9271 H   0  0  0  0  0  0  0  0  0  0  0  0
   -8.8255   -9.8456  -11.5686 H   0  0  0  0  0  0  0  0  0  0  0  0
   -8.6985   -9.0082  -10.0373 H   0  0  0  0  0  0  0  0  0  0  0  0
   -5.5263  -11.9650   -8.1979 H   0  0  0  0  0  0  0  0  0  0  0  0
   -6.2361  -12.8993   -9.5174 H   0  0  0  0  0  0  0  0  0  0  0  0
   -5.1553  -10.0504   -9.8210 H   0  0  0  0  0  0  0  0  0  0  0  0
   -4.3186  -11.5374  -10.2136 H   0  0  0  0  0  0  0  0  0  0  0  0
   -5.7486  -11.1002  -11.1221 H   0  0  0  0  0  0  0  0  0  0  0  0
  1  2  1  0  0  0  0
  2  3  1  0  0  0  0
  3  4  1  0  0  0  0
  4  5  1  0  0  0  0
  5  6  1  0  0  0  0
  6  7  1  0  0  0  0
  7  8  1  0  0  0  0
  8  9  1  0  0  0  0
  9 10  1  0  0  0  0
 10 11  1  0  0  0  0
 11 12  1  0  0  0  0
 12 13  1  0  0  0  0
 13 14  1  0  0  0  0
 14 15  1  0  0  0  0
 15 16  1  0  0  0  0
 16 17  1  0  0  0  0
 17 18  1  0  0  0  0
 18 19  1  0  0  0  0
 19 20  1  0  0  0  0
 20 21  1  0  0  0  0
 19 22  1  0  0  0  0
 22 23  1  0  0  0  0
 19 24  1  0  0  0  0
 24 25  1  0  0  0  0
  1 26  1  0  0  0  0
  1 27  1  0  0  0  0
  1 28  1  0  0  0  0
  2 29  1  0  0  0  0
  2 30  1  0  0  0  0
  3 31  1  0  0  0  0
  3 32  1  0  0  0  0
  4 33  1  0  0  0  0
  4 34  1  0  0  0  0
  5 35  1  0  0  0  0
  5 36  1  0  0  0  0
  6 37  1  0  0  0  0
  6 38  1  0  0  0  0
  7 39  1  0  0  0  0
  7 40  1  0  0  0  0
  8 41  1  0  0  0  0
  8 42  1  0  0  0  0
  9 43  1  0  0  0  0
  9 44  1  0  0  0  0
 10 45  1  0  0  0  0
 10 46  1  0  0  0  0
 11 47  1  0  0  0  0
 11 48  1  0  0  0  0
 12 49  1  0  0  0  0
 12 50  1  0  0  0  0
 13 51  1  0  0  0  0
 13 52  1  0  0  0  0
 14 53  1  0  0  0  0
 14 54  1  0  0  0  0
 15 55  1  0  0  0  0
 15 56  1  0  0  0  0
 16 57  1  0  0  0  0
 16 58  1  0  0  0  0
 17 59  1  0  0  0  0
 17 60  1  0  0  0  0
 18 61  1  0  0  0  0
 18 62  1  0  0  0  0
 20 63  1  0  0  0  0
 20 64  1  0  0  0  0
 21 65  1  0  0  0  0
 21 66  1  0  0  0  0
 21 67  1  0  0  0  0
 22 68  1  0  0  0  0
 22 69  1  0  0  0  0
 23 70  1  0  0  0  0
 23 71  1  0  0  0  0
 23 72  1  0  0  0  0
 24 73  1  0  0  0  0
 24 74  1  0  0  0  0
 25 75  1  0  0  0  0
 25 76  1  0  0  0  0
 25 77  1  0  0  0  0
M  CHG  1   1   1
M  END
