 xtb: 6.7.1 (edcfbbe)
          12202407043D

 86 89  0     0  0            999 V2000
    1.0425   -1.5078   -0.1226 C   0  0  0  0  0  0  0  0  0  0  0  0
    0.6975   -0.7322   -1.3840 C   0  0  0  0  0  0  0  0  0  0  0  0
    0.6014   -1.6219   -2.5279 N   0  0  0  0  0  0  0  0  0  0  0  0
    0.1545   -0.8830   -3.9472 S   0  0  0  0  0  0  0  0  0  0  0  0
    0.5832    0.4911   -3.9847 O   0  0  0  0  0  0  0  0  0  0  0  0
    0.4995   -1.7512   -5.0257 O   0  0  0  0  0  0  0  0  0  0  0  0
   -1.6311   -0.8315   -3.7663 C   0  0  0  0  0  0  0  0  0  0  0  0
   -2.3625   -1.9231   -3.3220 C   0  0  0  0  0  0  0  0  0  0  0  0
   -3.7376   -1.8367   -3.1688 C   0  0  0  0  0  0  0  0  0  0  0  0
   -4.3426   -0.6201   -3.4590 C   0  0  0  0  0  0  0  0  0  0  0  0
   -3.5851    0.4774   -3.9023 C   0  0  0  0  0  0  0  0  0  0  0  0
   -2.2182    0.3754   -4.0828 C   0  0  0  0  0  0  0  0  0  0  0  0
   -4.4457    1.5402   -4.0645 N   0  0  0  0  0  0  0  0  0  0  0  0
   -3.9922    2.8212   -4.5508 C   0  0  0  0  0  0  0  0  0  0  0  0
   -3.6086    3.7785   -3.4102 C   0  0  0  0  0  0  0  0  0  0  0  0
   -2.2471    3.4608   -2.7832 C   0  0  0  0  0  0  0  0  0  0  0  0
   -1.0605    3.8167   -3.6650 C   0  0  0  0  0  0  0  0  0  0  0  0
   -0.4278    5.4407   -3.1607 S   0  0  0  0  0  0  0  0  0  0  0  0
   -0.2514    5.4613   -1.7461 O   0  0  0  0  0  0  0  0  0  0  0  0
    0.6310    5.8478   -4.0224 O   0  0  0  0  0  0  0  0  0  0  0  0
   -1.7827    6.4511   -3.4052 N   0  0  0  0  0  0  0  0  0  0  0  0
   -2.3139    7.0285   -4.5315 C   0  0  0  0  0  0  0  0  0  0  0  0
   -3.2879    7.7417   -4.4480 O   0  0  0  0  0  0  0  0  0  0  0  0
   -1.6428    6.6630   -5.8212 C   0  0  0  0  0  0  0  0  0  0  0  0
   -5.7077    1.1356   -3.7249 C   0  0  0  0  0  0  0  0  0  0  0  0
   -5.6486   -0.1920   -3.3904 N   0  0  0  0  0  0  0  0  0  0  0  0
   -6.7453   -1.0154   -2.9361 C   0  0  0  0  0  0  0  0  0  0  0  0
   -7.0001   -0.8364   -1.4424 C   0  0  0  0  0  0  0  0  0  0  0  0
   -6.8929    1.8728   -3.7142 C   0  0  0  0  0  0  0  0  0  0  0  0
   -7.0280    3.2427   -3.8340 C   0  0  0  0  0  0  0  0  0  0  0  0
   -8.2272    3.9372   -3.8617 C   0  0  0  0  0  0  0  0  0  0  0  0
   -8.2087    5.3247   -3.9674 C   0  0  0  0  0  0  0  0  0  0  0  0
   -7.0506    5.9955   -4.0544 O   0  0  0  0  0  0  0  0  0  0  0  0
   -7.3585    7.3254   -4.1660 C   0  0  0  0  0  0  0  0  0  0  0  0
   -8.7486    7.4630   -4.1412 C   0  0  0  0  0  0  0  0  0  0  0  0
   -9.2562    6.1788   -4.0010 N   0  0  0  0  0  0  0  0  0  0  0  0
  -10.6559    5.8312   -3.9844 C   0  0  0  0  0  0  0  0  0  0  0  0
  -11.1733    5.5461   -5.3912 C   0  0  0  0  0  0  0  0  0  0  0  0
   -9.3325    8.7122   -4.2423 C   0  0  0  0  0  0  0  0  0  0  0  0
   -8.4967    9.8148   -4.3645 C   0  0  0  0  0  0  0  0  0  0  0  0
   -7.0952    9.6632   -4.3887 C   0  0  0  0  0  0  0  0  0  0  0  0
   -6.5120    8.4055   -4.2898 C   0  0  0  0  0  0  0  0  0  0  0  0
   -6.2114   10.8600   -4.5219 C   0  0  0  0  0  0  0  0  0  0  0  0
   -9.0973   11.1794   -4.4738 C   0  0  0  0  0  0  0  0  0  0  0  0
    0.3109   -2.2923    0.0506 H   0  0  0  0  0  0  0  0  0  0  0  0
    1.0509   -0.8368    0.7317 H   0  0  0  0  0  0  0  0  0  0  0  0
    2.0250   -1.9633   -0.2142 H   0  0  0  0  0  0  0  0  0  0  0  0
   -0.2839   -0.2589   -1.2864 H   0  0  0  0  0  0  0  0  0  0  0  0
    1.4359    0.0587   -1.5650 H   0  0  0  0  0  0  0  0  0  0  0  0
    1.4252   -2.1902   -2.6640 H   0  0  0  0  0  0  0  0  0  0  0  0
   -1.8390   -2.8364   -3.0946 H   0  0  0  0  0  0  0  0  0  0  0  0
   -4.3050   -2.6853   -2.8238 H   0  0  0  0  0  0  0  0  0  0  0  0
   -1.5881    1.1730   -4.4348 H   0  0  0  0  0  0  0  0  0  0  0  0
   -3.1245    2.6299   -5.1855 H   0  0  0  0  0  0  0  0  0  0  0  0
   -4.7739    3.2533   -5.1786 H   0  0  0  0  0  0  0  0  0  0  0  0
   -3.6123    4.7985   -3.7942 H   0  0  0  0  0  0  0  0  0  0  0  0
   -4.3671    3.7162   -2.6278 H   0  0  0  0  0  0  0  0  0  0  0  0
   -2.1364    4.0294   -1.8574 H   0  0  0  0  0  0  0  0  0  0  0  0
   -2.2132    2.4047   -2.5128 H   0  0  0  0  0  0  0  0  0  0  0  0
   -0.2239    3.1321   -3.5394 H   0  0  0  0  0  0  0  0  0  0  0  0
   -1.2957    3.9013   -4.7206 H   0  0  0  0  0  0  0  0  0  0  0  0
   -2.1861    6.7669   -2.5338 H   0  0  0  0  0  0  0  0  0  0  0  0
   -1.8345    7.4449   -6.5517 H   0  0  0  0  0  0  0  0  0  0  0  0
   -0.5753    6.5344   -5.6717 H   0  0  0  0  0  0  0  0  0  0  0  0
   -2.0665    5.7353   -6.2039 H   0  0  0  0  0  0  0  0  0  0  0  0
   -7.6409   -0.7692   -3.5105 H   0  0  0  0  0  0  0  0  0  0  0  0
   -6.4855   -2.0531   -3.1519 H   0  0  0  0  0  0  0  0  0  0  0  0
   -7.2643    0.1941   -1.2184 H   0  0  0  0  0  0  0  0  0  0  0  0
   -7.8162   -1.4807   -1.1295 H   0  0  0  0  0  0  0  0  0  0  0  0
   -6.1129   -1.0997   -0.8722 H   0  0  0  0  0  0  0  0  0  0  0  0
   -7.8004    1.3070   -3.5686 H   0  0  0  0  0  0  0  0  0  0  0  0
   -6.1535    3.8677   -3.8768 H   0  0  0  0  0  0  0  0  0  0  0  0
   -9.1726    3.4249   -3.8161 H   0  0  0  0  0  0  0  0  0  0  0  0
  -10.7924    4.9599   -3.3403 H   0  0  0  0  0  0  0  0  0  0  0  0
  -11.1979    6.6716   -3.5459 H   0  0  0  0  0  0  0  0  0  0  0  0
  -10.6394    4.7084   -5.8333 H   0  0  0  0  0  0  0  0  0  0  0  0
  -12.2308    5.3034   -5.3507 H   0  0  0  0  0  0  0  0  0  0  0  0
  -11.0414    6.4171   -6.0283 H   0  0  0  0  0  0  0  0  0  0  0  0
  -10.4035    8.8364   -4.2298 H   0  0  0  0  0  0  0  0  0  0  0  0
   -5.4419    8.2773   -4.3133 H   0  0  0  0  0  0  0  0  0  0  0  0
   -6.4294   11.3989   -5.4425 H   0  0  0  0  0  0  0  0  0  0  0  0
   -6.3711   11.5489   -3.6938 H   0  0  0  0  0  0  0  0  0  0  0  0
   -5.1679   10.5605   -4.5310 H   0  0  0  0  0  0  0  0  0  0  0  0
   -8.7493   11.8154   -3.6615 H   0  0  0  0  0  0  0  0  0  0  0  0
   -8.8021   11.6530   -5.4087 H   0  0  0  0  0  0  0  0  0  0  0  0
  -10.1818   11.1327   -4.4367 H   0  0  0  0  0  0  0  0  0  0  0  0
  1  2  1  0  0  0  0
  2  3  1  0  0  0  0
  3  4  1  0  0  0  0
  4  5  2  0  0  0  0
  4  6  2  0  0  0  0
  4  7  1  0  0  0  0
  7  8  4  0  0  0  0
  8  9  4  0  0  0  0
  9 10  4  0  0  0  0
 10 11  4  0  0  0  0
  7 12  4  0  0  0  0
 11 12  4  0  0  0  0
 11 13  1  0  0  0  0
 13 14  1  0  0  0  0
 14 15  1  0  0  0  0
 15 16  1  0  0  0  0
 16 17  1  0  0  0  0
 17 18  1  0  0  0  0
 18 19  2  0  0  0  0
 18 20  2  0  0  0  0
 18 21  1  0  0  0  0
 21 22  1  0  0  0  0
 22 23  2  0  0  0  0
 22 24  1  0  0  0  0
 13 25  4  0  0  0  0
 10 26  1  0  0  0  0
 25 26  4  0  0  0  0
 26 27  1  0  0  0  0
 27 28  1  0  0  0  0
 25 29  4  0  0  0  0
 29 30  4  0  0  0  0
 30 31  4  0  0  0  0
 31 32  4  0  0  0  0
 32 33  1  0  0  0  0
 33 34  1  0  0  0  0
 34 35  4  0  0  0  0
 32 36  4  0  0  0  0
 35 36  1  0  0  0  0
 36 37  1  0  0  0  0
 37 38  1  0  0  0  0
 35 39  4  0  0  0  0
 39 40  4  0  0  0  0
 40 41  4  0  0  0  0
 34 42  4  0  0  0  0
 41 42  4  0  0  0  0
 41 43  1  0  0  0  0
 40 44  1  0  0  0  0
  1 45  1  0  0  0  0
  1 46  1  0  0  0  0
  1 47  1  0  0  0  0
  2 48  1  0  0  0  0
  2 49  1  0  0  0  0
  3 50  1  0  0  0  0
  8 51  1  0  0  0  0
  9 52  1  0  0  0  0
 12 53  1  0  0  0  0
 14 54  1  0  0  0  0
 14 55  1  0  0  0  0
 15 56  1  0  0  0  0
 15 57  1  0  0  0  0
 16 58  1  0  0  0  0
 16 59  1  0  0  0  0
 17 60  1  0  0  0  0
 17 61  1  0  0  0  0
 21 62  1  0  0  0  0
 24 63  1  0  0  0  0
 24 64  1  0  0  0  0
 24 65  1  0  0  0  0
 27 66  1  0  0  0  0
 27 67  1  0  0  0  0
 28 68  1  0  0  0  0
 28 69  1  0  0  0  0
 28 70  1  0  0  0  0
 29 71  1  0  0  0  0
 30 72  1  0  0  0  0
 31 73  1  0  0  0  0
 37 74  1  0  0  0  0
 37 75  1  0  0  0  0
 38 76  1  0  0  0  0
 38 77  1  0  0  0  0
 38 78  1  0  0  0  0
 39 79  1  0  0  0  0
 42 80  1  0  0  0  0
 43 81  1  0  0  0  0
 43 82  1  0  0  0  0
 43 83  1  0  0  0  0
 44 84  1  0  0  0  0
 44 85  1  0  0  0  0
 44 86  1  0  0  0  0
M  CHG  1   1   1
M  END
