38

C          1.39714       -0.17787       -0.04685
O          1.27043        0.17874       -1.41964
C          1.08892        1.55297       -1.67614
C         -0.06460        2.53085       -3.02246
C          0.08131        4.31178       -3.14600
C          1.33386        5.09893       -2.15334
C          2.25557        4.23345       -0.87559
C          2.20940        2.50980       -0.65974
N          2.42501        5.44427       -3.13661
C          2.84502        3.99387       -3.35363
C          1.75238        3.00274       -2.74854
C          0.32390        3.26045       -1.33290
C         -0.97079        2.01535       -1.17373
C         -0.94472        0.64006       -2.27732
C          0.30564        0.40758       -3.53326
C          1.64948        1.52693       -3.78464
C          1.89926        6.11788       -4.38742
C          3.48928        6.33212       -2.53787
H          1.01608       -1.19745        0.06718
H          0.81448        0.46956        0.61691
H          2.45154       -0.18575        0.24355
H         -0.81481        2.18187       -3.75429
H         -0.48691        4.83685       -3.90604
H          2.96642        4.78748       -0.26332
H          2.86260        2.03211        0.06216
H          2.93577        3.82978       -4.43356
H          3.82321        3.81174       -2.89090
H          0.11607        4.08771       -0.62984
H         -1.75699        2.12503       -0.43303
H         -1.72192       -0.11866       -2.18469
H          0.24413       -0.48567       -4.15494
H          2.36553        1.34486       -4.58040
H          1.28596        6.97544       -4.09358
H          2.75554        6.45788       -4.97956
H          1.33677        5.41329       -5.00511
H          4.03912        5.81957       -1.74715
H          4.20667        6.58438       -3.32593
H          3.01277        7.24171       -2.15921
