67

C          1.15442       -0.07341        0.57106
C          1.19042        1.43723        0.39600
C          1.57998        1.88046       -1.01690
C          0.65808        1.39261       -2.13929
C         -0.81249        1.79801       -2.00002
C         -1.07887        3.30752       -2.02240
C         -0.65695        4.03947       -3.30479
C         -1.17467        3.43618       -4.61678
C         -2.70211        3.39604       -4.74006
C         -3.32081        4.70692       -5.24533
C         -3.21232        4.91324       -6.76304
C         -4.00004        3.91053       -7.61187
N         -5.42035        4.25415       -7.72813
C         -5.97080        5.00524       -8.67717
N         -5.29537        5.55062       -9.68912
N         -7.27982        5.10487       -8.48788
C         -7.62446        4.34885       -7.36460
C         -6.43323        3.78696       -6.89107
C         -6.40475        2.93551       -5.78823
C         -7.63033        2.69321       -5.15734
C         -8.82571        3.26647       -5.62517
C         -8.85072        4.10324       -6.74880
C         -8.22093        5.83118       -9.33369
C         -8.23900        7.28917       -8.94192
C         -7.49668        8.24447       -9.65152
C         -7.51757        9.59087       -9.27176
C         -8.28918       10.00877       -8.18489
C         -9.04244        9.07180       -7.47524
C         -9.01149        7.72202       -7.85088
Cl       -10.03738        9.50399       -6.13215
Cl        -8.26952       11.68596       -7.78135
H          0.36069       -0.52888       -0.02840
H          0.96280       -0.32597        1.61890
H          2.10888       -0.52514        0.28295
H          0.22005        1.86131        0.67595
H          1.92172        1.85131        1.10062
H          1.63439        2.97515       -1.03862
H          2.59609        1.52439       -1.22926
H          1.05180        1.75775       -3.09506
H          0.71199        0.29898       -2.20000
H         -1.38430        1.31449       -2.80083
H         -1.21959        1.38590       -1.06944
H         -2.14968        3.46925       -1.85147
H         -0.57720        3.78129       -1.17031
H         -0.98366        5.08373       -3.23129
H          0.43855        4.07014       -3.34973
H         -0.74298        3.99556       -5.45455
H         -0.78811        2.41556       -4.71699
H         -2.96669        2.57038       -5.40678
H         -3.15583        3.14310       -3.77686
H         -4.37549        4.74085       -4.95435
H         -2.84492        5.55424       -4.73744
H         -3.55176        5.92909       -7.00029
H         -2.15656        4.86265       -7.05196
H         -3.57735        3.89359       -8.62269
H         -3.91002        2.88338       -7.25031
H         -4.29365        5.46317       -9.75541
H         -5.76415        6.05471      -10.42235
H         -5.48744        2.48729       -5.43112
H         -7.65982        2.04359       -4.28184
H         -9.75662        3.04867       -5.10036
H         -9.77668        4.53020       -7.11103
H         -7.93164        5.70861      -10.38337
H         -9.22423        5.40023       -9.24598
H         -6.90575        7.97099      -10.52136
H         -6.93514       10.31818       -9.83534
H         -9.61031        7.01009       -7.28711
