 xtb: 6.7.1 (edcfbbe)
          12202407043D

 26 25  0     0  0            999 V2000
    1.3730   -0.0866   -0.1290 O   0  0  0  0  0  0  0  0  0  0  0  0
    0.5509   -1.1577   -0.5398 C   0  0  0  0  0  0  0  0  0  0  0  0
    0.8961   -1.4285   -2.0085 C   0  0  0  0  0  0  0  0  0  0  0  0
    2.3608   -1.3620   -2.2020 N   0  0  0  0  0  0  0  0  0  0  0  0
    3.1199   -2.4434   -1.5273 C   0  0  0  0  0  0  0  0  0  0  0  0
    2.7459   -3.8567   -1.9782 C   0  0  0  0  0  0  0  0  0  0  0  0
    2.8805   -3.9450   -3.3768 O   0  0  0  0  0  0  0  0  0  0  0  0
    2.7369   -1.1629   -3.6230 C   0  0  0  0  0  0  0  0  0  0  0  0
    2.6753    0.3340   -3.9392 C   0  0  0  0  0  0  0  0  0  0  0  0
    3.2912    0.9831   -2.8457 O   0  0  0  0  0  0  0  0  0  0  0  0
    1.0578    0.2785    0.7034 H   0  0  0  0  0  0  0  0  0  0  0  0
    0.7313   -2.0451    0.0820 H   0  0  0  0  0  0  0  0  0  0  0  0
   -0.5120   -0.9041   -0.4691 H   0  0  0  0  0  0  0  0  0  0  0  0
    0.5135   -2.3928   -2.3392 H   0  0  0  0  0  0  0  0  0  0  0  0
    0.4512   -0.6428   -2.6201 H   0  0  0  0  0  0  0  0  0  0  0  0
    2.6468   -0.4706   -1.7413 H   0  0  0  0  0  0  0  0  0  0  0  0
    4.1771   -2.2746   -1.7389 H   0  0  0  0  0  0  0  0  0  0  0  0
    2.9664   -2.3590   -0.4516 H   0  0  0  0  0  0  0  0  0  0  0  0
    3.4280   -4.5456   -1.4658 H   0  0  0  0  0  0  0  0  0  0  0  0
    1.7217   -4.1115   -1.6709 H   0  0  0  0  0  0  0  0  0  0  0  0
    2.8945   -4.8683   -3.6489 H   0  0  0  0  0  0  0  0  0  0  0  0
    3.7606   -1.5118   -3.7547 H   0  0  0  0  0  0  0  0  0  0  0  0
    2.0923   -1.7502   -4.2745 H   0  0  0  0  0  0  0  0  0  0  0  0
    3.2084    0.5239   -4.8760 H   0  0  0  0  0  0  0  0  0  0  0  0
    1.6392    0.6788   -4.0571 H   0  0  0  0  0  0  0  0  0  0  0  0
    3.3852    1.9241   -3.0226 H   0  0  0  0  0  0  0  0  0  0  0  0
  1  2  1  0  0  0  0
  2  3  1  0  0  0  0
  3  4  1  0  0  0  0
  4  5  1  0  0  0  0
  5  6  1  0  0  0  0
  6  7  1  0  0  0  0
  4  8  1  0  0  0  0
  8  9  1  0  0  0  0
  9 10  1  0  0  0  0
  1 11  1  0  0  0  0
  2 12  1  0  0  0  0
  2 13  1  0  0  0  0
  3 14  1  0  0  0  0
  3 15  1  0  0  0  0
  4 16  1  0  0  0  0
  5 17  1  0  0  0  0
  5 18  1  0  0  0  0
  6 19  1  0  0  0  0
  6 20  1  0  0  0  0
  7 21  1  0  0  0  0
  8 22  1  0  0  0  0
  8 23  1  0  0  0  0
  9 24  1  0  0  0  0
  9 25  1  0  0  0  0
 10 26  1  0  0  0  0
M  CHG  1   1   1
M  END
