41

C          1.35387       -0.31238       -0.07645
C          0.77968       -0.97658        1.16508
C          1.19896       -0.29694        2.47225
C          0.78318        1.16657        2.63079
N         -0.71817        1.37114        2.53684
C         -1.55522        0.60052        3.54711
C         -1.17376        0.80030        5.01502
C         -1.55652        2.13044        5.66543
C         -3.05592        2.38507        5.69451
C         -1.09372        2.83857        2.43021
C         -0.90044        3.38746        1.01316
C         -1.71807        2.71754       -0.09588
C         -3.21672        2.72285        0.15877
H          0.95845        0.69796       -0.21210
H          1.09251       -0.89266       -0.96724
H          2.44529       -0.25224       -0.02025
H         -0.31149       -1.02178        1.08434
H          1.12787       -2.01637        1.19313
H          0.81678       -0.88720        3.31288
H          2.29257       -0.34545        2.55274
H          1.11533        1.57113        3.59203
H          1.24480        1.77007        1.84434
H         -0.99642        0.95896        1.64000
H         -2.60449        0.84472        3.35239
H         -1.43697       -0.45677        3.28595
H         -1.66798        0.00328        5.58705
H         -0.10190        0.63149        5.16125
H         -1.19589        2.11565        6.70171
H         -1.04561        2.96680        5.18357
H         -3.58448        1.55877        6.18051
H         -3.27007        3.29925        6.25755
H         -3.46623        2.51238        4.68941
H         -2.13856        2.94511        2.73397
H         -0.46595        3.39152        3.13544
H         -1.16027        4.45386        1.03332
H          0.15886        3.34666        0.73575
H         -1.52277        3.25273       -1.03335
H         -1.38054        1.68891       -0.25895
H         -3.57930        3.73687        0.35401
H         -3.74725        2.33612       -0.71732
H         -3.48023        2.08868        1.01027
