31

C          1.51703        0.13542        0.13601
C          0.93890        0.62560       -1.18170
C          0.94757       -0.42154       -2.29817
C          0.29949       -1.78399       -2.02408
N         -1.24295       -1.85176       -2.13826
C         -1.91336       -1.06163       -1.02452
C         -1.71345       -1.36481       -3.53439
C         -3.17520       -1.74249       -3.80852
O         -3.37243       -3.15398       -3.71265
C         -3.08729       -3.63525       -2.39831
C         -1.62669       -3.36650       -2.01066
H          0.87923       -0.62236        0.59899
H          1.60074        0.96924        0.84069
H          2.51591       -0.28887       -0.00536
H         -0.06342        1.02503       -1.01727
H          1.54145        1.47828       -1.52043
H          0.54784        0.02854       -3.21210
H          2.00434       -0.62375       -2.52361
H          0.68332       -2.48835       -2.77306
H          0.56844       -2.18028       -1.03944
H         -1.42284       -1.30631       -0.07889
H         -1.83645        0.00139       -1.25249
H         -2.97021       -1.32794       -0.96922
H         -1.05748       -1.85178       -4.26485
H         -1.58185       -0.27988       -3.57630
H         -3.43955       -1.44290       -4.82772
H         -3.86490       -1.22739       -3.13068
H         -3.79525       -3.19925       -1.68616
H         -3.26411       -4.71580       -2.40083
H         -1.41274       -3.67495       -0.98212
H         -0.96950       -3.90667       -2.70211
