 xtb: 6.7.1 (edcfbbe)
          12202407043D

 36 37  0     0  0            999 V2000
    0.3504    1.0262   -0.3352 C   0  0  0  0  0  0  0  0  0  0  0  0
    1.4656    0.8747    0.5199 O   0  0  0  0  0  0  0  0  0  0  0  0
    1.4197    1.4454    1.7581 C   0  0  0  0  0  0  0  0  0  0  0  0
    0.4568    2.3565    2.1830 C   0  0  0  0  0  0  0  0  0  0  0  0
    0.5339    2.9165    3.4406 C   0  0  0  0  0  0  0  0  0  0  0  0
    1.5665    2.5809    4.3183 C   0  0  0  0  0  0  0  0  0  0  0  0
    2.5224    1.6618    3.9011 C   0  0  0  0  0  0  0  0  0  0  0  0
    2.4530    1.0886    2.6357 C   0  0  0  0  0  0  0  0  0  0  0  0
    3.5004    0.1195    2.1743 C   0  0  0  0  0  0  0  0  0  0  0  0
    4.5181    0.8142    1.2413 C   0  0  0  0  0  0  0  0  0  0  0  0
    5.1242    1.9096    1.9607 N   0  0  0  0  0  0  0  0  0  0  0  0
    4.4647    3.0727    2.0447 C   0  0  0  0  0  0  0  0  0  0  0  0
    4.9187    4.0910    2.8607 C   0  0  0  0  0  0  0  0  0  0  0  0
    6.0768    3.9051    3.6004 C   0  0  0  0  0  0  0  0  0  0  0  0
    6.7524    2.6934    3.4901 C   0  0  0  0  0  0  0  0  0  0  0  0
    6.2440    1.7121    2.6688 C   0  0  0  0  0  0  0  0  0  0  0  0
    1.5596    3.2088    5.5189 O   0  0  0  0  0  0  0  0  0  0  0  0
    2.5002    2.8296    6.4953 C   0  0  0  0  0  0  0  0  0  0  0  0
    0.2281    2.0650   -0.6544 H   0  0  0  0  0  0  0  0  0  0  0  0
   -0.5677    0.6783    0.1437 H   0  0  0  0  0  0  0  0  0  0  0  0
    0.5627    0.4057   -1.2037 H   0  0  0  0  0  0  0  0  0  0  0  0
   -0.3600    2.6341    1.5378 H   0  0  0  0  0  0  0  0  0  0  0  0
   -0.2103    3.6211    3.7732 H   0  0  0  0  0  0  0  0  0  0  0  0
    3.3197    1.3565    4.5622 H   0  0  0  0  0  0  0  0  0  0  0  0
    4.0221   -0.3140    3.0284 H   0  0  0  0  0  0  0  0  0  0  0  0
    3.0307   -0.6788    1.6003 H   0  0  0  0  0  0  0  0  0  0  0  0
    5.2851    0.1067    0.9257 H   0  0  0  0  0  0  0  0  0  0  0  0
    3.9875    1.1909    0.3662 H   0  0  0  0  0  0  0  0  0  0  0  0
    3.5774    3.1853    1.4420 H   0  0  0  0  0  0  0  0  0  0  0  0
    4.3661    5.0151    2.9125 H   0  0  0  0  0  0  0  0  0  0  0  0
    6.4515    4.6848    4.2446 H   0  0  0  0  0  0  0  0  0  0  0  0
    7.6611    2.5113    4.0409 H   0  0  0  0  0  0  0  0  0  0  0  0
    6.7288    0.7523    2.5662 H   0  0  0  0  0  0  0  0  0  0  0  0
    2.4257    1.7646    6.7331 H   0  0  0  0  0  0  0  0  0  0  0  0
    3.5241    3.0651    6.1820 H   0  0  0  0  0  0  0  0  0  0  0  0
    2.2545    3.4125    7.3806 H   0  0  0  0  0  0  0  0  0  0  0  0
  1  2  1  0  0  0  0
  2  3  1  0  0  0  0
  3  4  4  0  0  0  0
  4  5  4  0  0  0  0
  5  6  4  0  0  0  0
  6  7  4  0  0  0  0
  3  8  4  0  0  0  0
  7  8  4  0  0  0  0
  8  9  1  0  0  0  0
  9 10  1  0  0  0  0
 10 11  1  0  0  0  0
 11 12  4  0  0  0  0
 12 13  4  0  0  0  0
 13 14  4  0  0  0  0
 14 15  4  0  0  0  0
 11 16  4  0  0  0  0
 15 16  4  0  0  0  0
  6 17  1  0  0  0  0
 17 18  1  0  0  0  0
  1 19  1  0  0  0  0
  1 20  1  0  0  0  0
  1 21  1  0  0  0  0
  4 22  1  0  0  0  0
  5 23  1  0  0  0  0
  7 24  1  0  0  0  0
  9 25  1  0  0  0  0
  9 26  1  0  0  0  0
 10 27  1  0  0  0  0
 10 28  1  0  0  0  0
 12 29  1  0  0  0  0
 13 30  1  0  0  0  0
 14 31  1  0  0  0  0
 15 32  1  0  0  0  0
 16 33  1  0  0  0  0
 18 34  1  0  0  0  0
 18 35  1  0  0  0  0
 18 36  1  0  0  0  0
M  CHG  1   1   1
M  END
