 xtb: 6.7.1 (edcfbbe)
          12202407043D

 31 31  0     0  0            999 V2000
    2.1096   -0.0345   -0.0610 C   0  0  0  0  0  0  0  0  0  0  0  0
    0.9143    0.5444   -0.8088 C   0  0  0  0  0  0  0  0  0  0  0  0
    0.6445   -0.1701   -2.1390 C   0  0  0  0  0  0  0  0  0  0  0  0
    0.1253   -1.6067   -1.9953 C   0  0  0  0  0  0  0  0  0  0  0  0
   -1.3490   -1.8060   -2.1848 N   0  0  0  0  0  0  0  0  0  0  0  0
   -2.0897   -0.9561   -1.2362 C   0  0  0  0  0  0  0  0  0  0  0  0
   -1.7335   -1.5046   -3.5933 C   0  0  0  0  0  0  0  0  0  0  0  0
   -3.1556   -1.9719   -3.9275 C   0  0  0  0  0  0  0  0  0  0  0  0
   -3.3050   -3.3439   -3.6809 O   0  0  0  0  0  0  0  0  0  0  0  0
   -3.0680   -3.6437   -2.3321 C   0  0  0  0  0  0  0  0  0  0  0  0
   -1.6426   -3.2477   -1.9281 C   0  0  0  0  0  0  0  0  0  0  0  0
    1.9512   -1.0719    0.2246 H   0  0  0  0  0  0  0  0  0  0  0  0
    2.2881    0.5354    0.8458 H   0  0  0  0  0  0  0  0  0  0  0  0
    3.0048    0.0175   -0.6742 H   0  0  0  0  0  0  0  0  0  0  0  0
    0.0355    0.5198   -0.1632 H   0  0  0  0  0  0  0  0  0  0  0  0
    1.1231    1.5914   -1.0318 H   0  0  0  0  0  0  0  0  0  0  0  0
   -0.0323    0.4322   -2.7445 H   0  0  0  0  0  0  0  0  0  0  0  0
    1.5887   -0.2113   -2.6841 H   0  0  0  0  0  0  0  0  0  0  0  0
    0.6259   -2.2500   -2.7209 H   0  0  0  0  0  0  0  0  0  0  0  0
    0.3731   -1.9756   -0.9980 H   0  0  0  0  0  0  0  0  0  0  0  0
   -1.7728   -1.1823   -0.2197 H   0  0  0  0  0  0  0  0  0  0  0  0
   -1.8953    0.0932   -1.4439 H   0  0  0  0  0  0  0  0  0  0  0  0
   -3.1598   -1.1295   -1.3112 H   0  0  0  0  0  0  0  0  0  0  0  0
   -1.0369   -2.0331   -4.2478 H   0  0  0  0  0  0  0  0  0  0  0  0
   -1.6496   -0.4342   -3.7769 H   0  0  0  0  0  0  0  0  0  0  0  0
   -3.3329   -1.8301   -4.9950 H   0  0  0  0  0  0  0  0  0  0  0  0
   -3.9066   -1.3918   -3.3727 H   0  0  0  0  0  0  0  0  0  0  0  0
   -3.8172   -3.1621   -1.6879 H   0  0  0  0  0  0  0  0  0  0  0  0
   -3.1763   -4.7252   -2.2328 H   0  0  0  0  0  0  0  0  0  0  0  0
   -1.4791   -3.4647   -0.8719 H   0  0  0  0  0  0  0  0  0  0  0  0
   -0.9471   -3.8418   -2.5252 H   0  0  0  0  0  0  0  0  0  0  0  0
  1  2  1  0  0  0  0
  2  3  1  0  0  0  0
  3  4  1  0  0  0  0
  4  5  1  0  0  0  0
  5  6  1  0  0  0  0
  5  7  1  0  0  0  0
  7  8  1  0  0  0  0
  8  9  1  0  0  0  0
  9 10  1  0  0  0  0
  5 11  1  0  0  0  0
 10 11  1  0  0  0  0
  1 12  1  0  0  0  0
  1 13  1  0  0  0  0
  1 14  1  0  0  0  0
  2 15  1  0  0  0  0
  2 16  1  0  0  0  0
  3 17  1  0  0  0  0
  3 18  1  0  0  0  0
  4 19  1  0  0  0  0
  4 20  1  0  0  0  0
  6 21  1  0  0  0  0
  6 22  1  0  0  0  0
  6 23  1  0  0  0  0
  7 24  1  0  0  0  0
  7 25  1  0  0  0  0
  8 26  1  0  0  0  0
  8 27  1  0  0  0  0
 10 28  1  0  0  0  0
 10 29  1  0  0  0  0
 11 30  1  0  0  0  0
 11 31  1  0  0  0  0
M  CHG  1   1   1
M  END
