 xtb: 6.7.1 (edcfbbe)
          12202407043D

 24 24  0     0  0            999 V2000
    1.2687    0.3767    0.4708 C   0  0  0  0  0  0  0  0  0  0  0  0
    0.4892    0.4620    1.5313 C   0  0  0  0  0  0  0  0  0  0  0  0
   -1.0109    0.3802    1.4692 C   0  0  0  0  0  0  0  0  0  0  0  0
   -1.5132   -0.6817    2.3209 N   0  0  0  0  0  0  0  0  0  0  0  0
   -2.5783   -0.6125    3.1649 C   0  0  0  0  0  0  0  0  0  0  0  0
   -2.7133   -1.8350    3.7493 C   0  0  0  0  0  0  0  0  0  0  0  0
   -1.7208   -2.6288    3.2574 N   0  0  0  0  0  0  0  0  0  0  0  0
   -1.0092   -1.9075    2.3916 C   0  0  0  0  0  0  0  0  0  0  0  0
   -1.5481   -4.0412    3.5119 C   0  0  0  0  0  0  0  0  0  0  0  0
   -2.3518   -4.8714    2.4912 C   0  0  0  0  0  0  0  0  0  0  0  0
   -2.0509   -4.4089    1.1575 C   0  0  0  0  0  0  0  0  0  0  0  0
   -1.7859   -3.9432    0.1492 N   0  0  0  0  0  0  0  0  0  0  0  0
    0.8726    0.2307   -0.5203 H   0  0  0  0  0  0  0  0  0  0  0  0
    2.3374    0.4673    0.5493 H   0  0  0  0  0  0  0  0  0  0  0  0
    0.9001    0.6211    2.5186 H   0  0  0  0  0  0  0  0  0  0  0  0
   -1.4563    1.3192    1.8089 H   0  0  0  0  0  0  0  0  0  0  0  0
   -1.3339    0.1910    0.4407 H   0  0  0  0  0  0  0  0  0  0  0  0
   -3.1593    0.2781    3.2939 H   0  0  0  0  0  0  0  0  0  0  0  0
   -3.4259   -2.1786    4.4713 H   0  0  0  0  0  0  0  0  0  0  0  0
   -0.1627   -2.2558    1.8319 H   0  0  0  0  0  0  0  0  0  0  0  0
   -0.4852   -4.2811    3.4308 H   0  0  0  0  0  0  0  0  0  0  0  0
   -1.8887   -4.2660    4.5244 H   0  0  0  0  0  0  0  0  0  0  0  0
   -2.0869   -5.9263    2.5824 H   0  0  0  0  0  0  0  0  0  0  0  0
   -3.4269   -4.7684    2.6608 H   0  0  0  0  0  0  0  0  0  0  0  0
  1  2  2  0  0  0  0
  2  3  1  0  0  0  0
  3  4  1  0  0  0  0
  4  5  4  0  0  0  0
  5  6  2  0  0  0  0
  6  7  4  0  0  0  0
  4  8  4  0  0  0  0
  7  8  4  0  0  0  0
  7  9  1  0  0  0  0
  9 10  1  0  0  0  0
 10 11  1  0  0  0  0
 11 12  3  0  0  0  0
  1 13  1  0  0  0  0
  1 14  1  0  0  0  0
  2 15  1  0  0  0  0
  3 16  1  0  0  0  0
  3 17  1  0  0  0  0
  5 18  1  0  0  0  0
  6 19  1  0  0  0  0
  8 20  1  0  0  0  0
  9 21  1  0  0  0  0
  9 22  1  0  0  0  0
 10 23  1  0  0  0  0
 10 24  1  0  0  0  0
M  CHG  1   1   1
M  END
