51

F          0.13502       -0.29119       -0.56061
C          1.48888       -0.25628       -0.53833
F          1.84413        0.99456       -0.16092
F          1.88905       -1.09649        0.44406
C          2.07558       -0.63169       -1.88544
F          1.66713       -1.87845       -2.25147
F          1.61949        0.21277       -2.85287
C          3.58301       -0.57483       -1.81349
F          3.99089        0.67254       -1.44673
F          4.04174       -1.41156       -0.84293
C          4.21736       -0.94300       -3.14463
F          3.83952       -2.19193       -3.52167
F          3.78611       -0.10233       -4.12197
C          5.72999       -0.87259       -3.04767
F          6.11589        0.38048       -2.66741
F          6.17891       -1.70291       -2.06540
C          6.41243       -1.22975       -4.35933
F          6.06698       -2.48032       -4.75372
F          6.01795       -0.38604       -5.34796
C          7.91737       -1.13420       -4.18189
F          8.25107        0.11764       -3.75829
F          8.34944       -1.97370       -3.19683
C          8.71876       -1.42653       -5.44275
F          8.28625       -2.58399       -6.00874
F          8.53357       -0.44978       -6.36613
C         10.22735       -1.59106       -5.22271
C         11.02567       -0.33817       -4.86820
N         10.82113        0.15350       -3.47880
C         10.98519       -0.66961       -2.41505
C         10.63939       -0.25095       -1.13346
C         10.15823        1.04308       -0.91959
C         10.13028        1.90949       -2.01473
C         10.47856        1.45135       -3.28092
C          9.65232        1.46385        0.39566
C          8.36790        2.01341        0.52332
C          7.90859        2.37361        1.78011
N          8.63279        2.22657        2.90534
C          9.86556        1.69849        2.77490
C         10.41062        1.30651        1.56123
H         10.40653       -2.40015       -4.50677
H         10.63876       -1.96027       -6.17223
H         12.10075       -0.54433       -4.93972
H         10.79633        0.47234       -5.56802
H         11.34470       -1.67799       -2.59777
H         10.70272       -0.96027       -0.30878
H          9.80282        2.94163       -1.89460
H         10.42229        2.10346       -4.14862
H          7.71390        2.14763       -0.33286
H          6.91678        2.79638        1.91817
H         10.42228        1.59396        3.70253
H         11.41386        0.89415        1.54197
