50

O          0.63992       -0.27104        0.60252
C          0.14621        1.04267        0.40078
C          0.75669        2.00253        1.41833
C          2.29032        2.04411        1.43597
C          2.95521        2.37193        0.09871
C          2.60957        3.74392       -0.47982
C          3.19857        4.94575        0.25965
N          4.63423        4.88557        0.57021
C          5.18274        5.14777        1.75674
N          4.51001        5.30182        2.89899
N          6.50092        5.23440        1.64622
C          6.86606        4.82808        0.36626
C          5.67260        4.67510       -0.34952
C          5.67825        4.36650       -1.70935
C          6.93110        4.15967       -2.30151
C          8.12383        4.28205       -1.57043
C          8.11675        4.63212       -0.21656
C          7.42330        5.76667        2.64588
C          7.54125        7.25974        2.45226
C          6.62469        8.14139        3.04701
C          6.72214        9.51919        2.83643
C          7.73277       10.03369        2.02840
C          8.64966        9.17296        1.43189
C          8.55518        7.79554        1.64138
H          1.40237       -0.40336        0.01433
H          0.34559        1.35347       -0.62991
H         -0.94062        1.01468        0.52893
H          0.35291        3.00768        1.25630
H          0.43136        1.69269        2.41973
H          2.61344        2.76831        2.19283
H          2.66511        1.06895        1.77190
H          4.04074        2.28056        0.21673
H          2.67794        1.60842       -0.63772
H          2.93341        3.76270       -1.52305
H          1.52156        3.86853       -0.53125
H          3.04033        5.85351       -0.33548
H          2.63274        5.08913        1.18382
H          3.51073        5.18588        2.94428
H          4.99199        5.45272        3.77075
H          4.77441        4.28334       -2.29433
H          6.98265        3.89730       -3.35875
H          9.07535        4.11016       -2.07403
H          9.03609        4.74003        0.34380
H          7.06736        5.53288        3.65403
H          8.40087        5.28135        2.55175
H          5.82680        7.77555        3.68600
H          6.01151       10.19739        3.30411
H          7.80875       11.10678        1.86593
H          9.44044        9.57752        0.80340
H          9.28795        7.15014        1.16301
