36

C          0.04653        0.51367       -0.06643
O          1.25376        1.18071        0.31661
C          1.23458        1.58231        1.62660
C          0.22261        2.39119        2.13887
C          0.29001        2.82900        3.46218
C          1.36453        2.47267        4.27884
C          2.37310        1.65611        3.76534
C          2.32777        1.22114        2.42797
C          3.46934        0.41678        1.85157
C          4.44830        1.29397        1.06898
N          5.22101        2.15263        2.00807
C          4.84210        3.43569        2.21580
C          5.52247        4.23417        3.12910
C          6.60530        3.70711        3.82229
C          6.99383        2.39633        3.58373
C          6.28771        1.63301        2.66269
O          1.31884        2.99453        5.53982
C          2.44894        2.78826        6.37761
H         -0.76693        1.22823       -0.22332
H         -0.23945       -0.24702        0.66922
H          0.23576        0.00661       -1.01742
H         -0.61301        2.71045        1.52225
H         -0.50080        3.46316        3.85949
H          3.20666        1.35338        4.39133
H          3.98656       -0.11999        2.65602
H          3.06759       -0.36114        1.19077
H          5.17769        0.67907        0.52950
H          3.95474        1.94350        0.33756
H          3.98083        3.80605        1.66507
H          5.20566        5.25986        3.30390
H          7.14576        4.31851        4.54408
H          7.84245        1.96991        4.11559
H          6.55530        0.60198        2.45118
H          2.57774        1.72659        6.61074
H          3.35538        3.20511        5.92508
H          2.27187        3.31980        7.31734
