 xtb: 6.7.1 (edcfbbe)
          12202407043D

 44 43  0     0  0            999 V2000
    0.8984    1.1521   -0.3199 C   0  0  0  0  0  0  0  0  0  0  0  0
    0.2505    0.7443   -1.6377 C   0  0  0  0  0  0  0  0  0  0  0  0
    0.9663   -0.4186   -2.3272 C   0  0  0  0  0  0  0  0  0  0  0  0
    0.9977   -1.7246   -1.5295 C   0  0  0  0  0  0  0  0  0  0  0  0
   -0.3731   -2.2845   -1.1401 C   0  0  0  0  0  0  0  0  0  0  0  0
   -1.3061   -2.5828   -2.3205 C   0  0  0  0  0  0  0  0  0  0  0  0
   -0.7958   -3.6748   -3.2723 C   0  0  0  0  0  0  0  0  0  0  0  0
   -1.4551   -5.0108   -3.1726 N   0  0  0  0  0  0  0  0  0  0  0  0
   -2.9384   -4.9108   -3.3950 C   0  0  0  0  0  0  0  0  0  0  0  0
   -3.3794   -4.0404   -4.5620 C   0  0  0  0  0  0  0  0  0  0  0  0
   -0.9145   -5.9411   -4.2256 C   0  0  0  0  0  0  0  0  0  0  0  0
    0.5402   -5.7774   -4.6462 C   0  0  0  0  0  0  0  0  0  0  0  0
   -1.2819   -5.5988   -1.8066 C   0  0  0  0  0  0  0  0  0  0  0  0
    0.1259   -6.0167   -1.4139 C   0  0  0  0  0  0  0  0  0  0  0  0
    0.8118    0.3668    0.4271 H   0  0  0  0  0  0  0  0  0  0  0  0
    0.4154    2.0430    0.0729 H   0  0  0  0  0  0  0  0  0  0  0  0
    1.9526    1.3740   -0.4675 H   0  0  0  0  0  0  0  0  0  0  0  0
   -0.7994    0.4960   -1.4674 H   0  0  0  0  0  0  0  0  0  0  0  0
    0.2724    1.5986   -2.3176 H   0  0  0  0  0  0  0  0  0  0  0  0
    0.5035   -0.5922   -3.3022 H   0  0  0  0  0  0  0  0  0  0  0  0
    2.0005   -0.1229   -2.5148 H   0  0  0  0  0  0  0  0  0  0  0  0
    1.5581   -2.4623   -2.1112 H   0  0  0  0  0  0  0  0  0  0  0  0
    1.5602   -1.5613   -0.6101 H   0  0  0  0  0  0  0  0  0  0  0  0
   -0.2194   -3.1830   -0.5388 H   0  0  0  0  0  0  0  0  0  0  0  0
   -0.8747   -1.5578   -0.5009 H   0  0  0  0  0  0  0  0  0  0  0  0
   -2.2927   -2.8259   -1.9274 H   0  0  0  0  0  0  0  0  0  0  0  0
   -1.4220   -1.6623   -2.8927 H   0  0  0  0  0  0  0  0  0  0  0  0
   -0.9104   -3.3492   -4.3056 H   0  0  0  0  0  0  0  0  0  0  0  0
    0.2662   -3.8228   -3.0875 H   0  0  0  0  0  0  0  0  0  0  0  0
   -3.3049   -5.9294   -3.5412 H   0  0  0  0  0  0  0  0  0  0  0  0
   -3.3967   -4.5262   -2.4831 H   0  0  0  0  0  0  0  0  0  0  0  0
   -2.9161   -4.3239   -5.5032 H   0  0  0  0  0  0  0  0  0  0  0  0
   -4.4530   -4.1656   -4.6797 H   0  0  0  0  0  0  0  0  0  0  0  0
   -3.1918   -2.9869   -4.3788 H   0  0  0  0  0  0  0  0  0  0  0  0
   -1.0753   -6.9570   -3.8602 H   0  0  0  0  0  0  0  0  0  0  0  0
   -1.5241   -5.8104   -5.1202 H   0  0  0  0  0  0  0  0  0  0  0  0
    1.2403   -5.8450   -3.8212 H   0  0  0  0  0  0  0  0  0  0  0  0
    0.7668   -6.5896   -5.3335 H   0  0  0  0  0  0  0  0  0  0  0  0
    0.7107   -4.8474   -5.1805 H   0  0  0  0  0  0  0  0  0  0  0  0
   -1.6442   -4.8597   -1.0913 H   0  0  0  0  0  0  0  0  0  0  0  0
   -1.9338   -6.4736   -1.7456 H   0  0  0  0  0  0  0  0  0  0  0  0
    0.8373   -5.1987   -1.4777 H   0  0  0  0  0  0  0  0  0  0  0  0
    0.0932   -6.3369   -0.3750 H   0  0  0  0  0  0  0  0  0  0  0  0
    0.4850   -6.8575   -1.9989 H   0  0  0  0  0  0  0  0  0  0  0  0
  1  2  1  0  0  0  0
  2  3  1  0  0  0  0
  3  4  1  0  0  0  0
  4  5  1  0  0  0  0
  5  6  1  0  0  0  0
  6  7  1  0  0  0  0
  7  8  1  0  0  0  0
  8  9  1  0  0  0  0
  9 10  1  0  0  0  0
  8 11  1  0  0  0  0
 11 12  1  0  0  0  0
  8 13  1  0  0  0  0
 13 14  1  0  0  0  0
  1 15  1  0  0  0  0
  1 16  1  0  0  0  0
  1 17  1  0  0  0  0
  2 18  1  0  0  0  0
  2 19  1  0  0  0  0
  3 20  1  0  0  0  0
  3 21  1  0  0  0  0
  4 22  1  0  0  0  0
  4 23  1  0  0  0  0
  5 24  1  0  0  0  0
  5 25  1  0  0  0  0
  6 26  1  0  0  0  0
  6 27  1  0  0  0  0
  7 28  1  0  0  0  0
  7 29  1  0  0  0  0
  9 30  1  0  0  0  0
  9 31  1  0  0  0  0
 10 32  1  0  0  0  0
 10 33  1  0  0  0  0
 10 34  1  0  0  0  0
 11 35  1  0  0  0  0
 11 36  1  0  0  0  0
 12 37  1  0  0  0  0
 12 38  1  0  0  0  0
 12 39  1  0  0  0  0
 13 40  1  0  0  0  0
 13 41  1  0  0  0  0
 14 42  1  0  0  0  0
 14 43  1  0  0  0  0
 14 44  1  0  0  0  0
M  CHG  1   1   1
M  END
