 xtb: 6.7.1 (edcfbbe)
          12202407043D

 36 36  0     0  0            999 V2000
    2.2916    0.0382    0.2778 C   0  0  0  0  0  0  0  0  0  0  0  0
    1.1194   -0.8174    0.7434 C   0  0  0  0  0  0  0  0  0  0  0  0
    0.7819   -0.6016    2.2238 C   0  0  0  0  0  0  0  0  0  0  0  0
    0.1601    0.7666    2.5357 C   0  0  0  0  0  0  0  0  0  0  0  0
   -1.3223    0.7977    2.7656 N   0  0  0  0  0  0  0  0  0  0  0  0
   -2.0050    0.2219    1.5962 C   0  0  0  0  0  0  0  0  0  0  0  0
   -1.6541    0.0445    4.0070 C   0  0  0  0  0  0  0  0  0  0  0  0
   -3.0988    0.2218    4.4559 C   0  0  0  0  0  0  0  0  0  0  0  0
   -3.3967    1.6928    4.7196 C   0  0  0  0  0  0  0  0  0  0  0  0
   -3.1100    2.5365    3.4752 C   0  0  0  0  0  0  0  0  0  0  0  0
   -1.6980    2.2337    2.9471 C   0  0  0  0  0  0  0  0  0  0  0  0
   -4.2350    2.4464    2.4423 C   0  0  0  0  0  0  0  0  0  0  0  0
    2.0754    1.1017    0.3512 H   0  0  0  0  0  0  0  0  0  0  0  0
    2.5220   -0.1837   -0.7599 H   0  0  0  0  0  0  0  0  0  0  0  0
    3.1765   -0.1716    0.8730 H   0  0  0  0  0  0  0  0  0  0  0  0
    0.2517   -0.6201    0.1121 H   0  0  0  0  0  0  0  0  0  0  0  0
    1.3855   -1.8668    0.6109 H   0  0  0  0  0  0  0  0  0  0  0  0
    0.1432   -1.4132    2.5711 H   0  0  0  0  0  0  0  0  0  0  0  0
    1.7127   -0.6824    2.7872 H   0  0  0  0  0  0  0  0  0  0  0  0
    0.6274    1.1817    3.4303 H   0  0  0  0  0  0  0  0  0  0  0  0
    0.3705    1.4451    1.7067 H   0  0  0  0  0  0  0  0  0  0  0  0
   -1.7388    0.7845    0.7037 H   0  0  0  0  0  0  0  0  0  0  0  0
   -1.7093   -0.8155    1.4623 H   0  0  0  0  0  0  0  0  0  0  0  0
   -3.0806    0.2641    1.7217 H   0  0  0  0  0  0  0  0  0  0  0  0
   -0.9930    0.4083    4.7970 H   0  0  0  0  0  0  0  0  0  0  0  0
   -1.4437   -1.0124    3.8430 H   0  0  0  0  0  0  0  0  0  0  0  0
   -3.2319   -0.3507    5.3742 H   0  0  0  0  0  0  0  0  0  0  0  0
   -3.7923   -0.1900    3.7236 H   0  0  0  0  0  0  0  0  0  0  0  0
   -4.4376    1.8169    5.0135 H   0  0  0  0  0  0  0  0  0  0  0  0
   -2.7766    2.0402    5.5480 H   0  0  0  0  0  0  0  0  0  0  0  0
   -3.0597    3.5871    3.7807 H   0  0  0  0  0  0  0  0  0  0  0  0
   -1.5518    2.7422    1.9921 H   0  0  0  0  0  0  0  0  0  0  0  0
   -0.9885    2.6518    3.6652 H   0  0  0  0  0  0  0  0  0  0  0  0
   -5.0750    3.0447    2.7850 H   0  0  0  0  0  0  0  0  0  0  0  0
   -3.9200    2.8446    1.4812 H   0  0  0  0  0  0  0  0  0  0  0  0
   -4.6080    1.4362    2.3015 H   0  0  0  0  0  0  0  0  0  0  0  0
  1  2  1  0  0  0  0
  2  3  1  0  0  0  0
  3  4  1  0  0  0  0
  4  5  1  0  0  0  0
  5  6  1  0  0  0  0
  5  7  1  0  0  0  0
  7  8  1  0  0  0  0
  8  9  1  0  0  0  0
  9 10  1  0  0  0  0
  5 11  1  0  0  0  0
 10 11  1  0  0  0  0
 10 12  1  0  0  0  0
  1 13  1  0  0  0  0
  1 14  1  0  0  0  0
  1 15  1  0  0  0  0
  2 16  1  0  0  0  0
  2 17  1  0  0  0  0
  3 18  1  0  0  0  0
  3 19  1  0  0  0  0
  4 20  1  0  0  0  0
  4 21  1  0  0  0  0
  6 22  1  0  0  0  0
  6 23  1  0  0  0  0
  6 24  1  0  0  0  0
  7 25  1  0  0  0  0
  7 26  1  0  0  0  0
  8 27  1  0  0  0  0
  8 28  1  0  0  0  0
  9 29  1  0  0  0  0
  9 30  1  0  0  0  0
 10 31  1  0  0  0  0
 11 32  1  0  0  0  0
 11 33  1  0  0  0  0
 12 34  1  0  0  0  0
 12 35  1  0  0  0  0
 12 36  1  0  0  0  0
M  CHG  1   1   1
M  END
