 xtb: 6.7.1 (edcfbbe)
          12202407043D

 47 46  0     0  0            999 V2000
    0.6976    1.4713    0.1676 C   0  0  0  0  0  0  0  0  0  0  0  0
    0.0269    0.2754    0.8498 C   0  0  0  0  0  0  0  0  0  0  0  0
    0.5355    0.0943    2.2840 C   0  0  0  0  0  0  0  0  0  0  0  0
    0.3288    1.3071    3.1939 C   0  0  0  0  0  0  0  0  0  0  0  0
   -1.1371    1.7050    3.3580 C   0  0  0  0  0  0  0  0  0  0  0  0
   -1.3274    2.8935    4.3027 C   0  0  0  0  0  0  0  0  0  0  0  0
   -0.7943    4.2262    3.7717 C   0  0  0  0  0  0  0  0  0  0  0  0
   -1.5415    4.7306    2.5416 C   0  0  0  0  0  0  0  0  0  0  0  0
    0.2684    1.6802   -1.5922 P   0  0  0  0  0  0  0  0  0  0  0  0
    1.2603    0.5877   -2.6734 C   0  0  0  0  0  0  0  0  0  0  0  0
    1.0103   -0.9068   -2.5051 C   0  0  0  0  0  0  0  0  0  0  0  0
   -1.5012    1.3348   -1.8845 C   0  0  0  0  0  0  0  0  0  0  0  0
   -2.4292    2.3525   -1.2287 C   0  0  0  0  0  0  0  0  0  0  0  0
    0.6786    3.3805   -2.1460 C   0  0  0  0  0  0  0  0  0  0  0  0
    0.5431    4.4649   -1.0808 C   0  0  0  0  0  0  0  0  0  0  0  0
    1.7874    1.3828    0.2253 H   0  0  0  0  0  0  0  0  0  0  0  0
    0.4071    2.3916    0.6792 H   0  0  0  0  0  0  0  0  0  0  0  0
   -1.0539    0.4171    0.8698 H   0  0  0  0  0  0  0  0  0  0  0  0
    0.2296   -0.6427    0.2965 H   0  0  0  0  0  0  0  0  0  0  0  0
    0.0188   -0.7641    2.7164 H   0  0  0  0  0  0  0  0  0  0  0  0
    1.6010   -0.1444    2.2556 H   0  0  0  0  0  0  0  0  0  0  0  0
    0.7298    1.0577    4.1777 H   0  0  0  0  0  0  0  0  0  0  0  0
    0.9092    2.1525    2.8219 H   0  0  0  0  0  0  0  0  0  0  0  0
   -1.5799    1.9491    2.3911 H   0  0  0  0  0  0  0  0  0  0  0  0
   -1.6861    0.8510    3.7601 H   0  0  0  0  0  0  0  0  0  0  0  0
   -2.3939    3.0059    4.5080 H   0  0  0  0  0  0  0  0  0  0  0  0
   -0.8325    2.6713    5.2498 H   0  0  0  0  0  0  0  0  0  0  0  0
   -0.8963    4.9692    4.5641 H   0  0  0  0  0  0  0  0  0  0  0  0
    0.2709    4.1427    3.5467 H   0  0  0  0  0  0  0  0  0  0  0  0
   -2.6051    4.8137    2.7522 H   0  0  0  0  0  0  0  0  0  0  0  0
   -1.1731    5.7119    2.2524 H   0  0  0  0  0  0  0  0  0  0  0  0
   -1.4139    4.0590    1.6937 H   0  0  0  0  0  0  0  0  0  0  0  0
    1.0382    0.8940   -3.7012 H   0  0  0  0  0  0  0  0  0  0  0  0
    2.3121    0.8189   -2.4773 H   0  0  0  0  0  0  0  0  0  0  0  0
   -0.0381   -1.1561   -2.6489 H   0  0  0  0  0  0  0  0  0  0  0  0
    1.5873   -1.4518   -3.2484 H   0  0  0  0  0  0  0  0  0  0  0  0
    1.3258   -1.2536   -1.5248 H   0  0  0  0  0  0  0  0  0  0  0  0
   -1.6506    1.3238   -2.9684 H   0  0  0  0  0  0  0  0  0  0  0  0
   -1.7070    0.3303   -1.5054 H   0  0  0  0  0  0  0  0  0  0  0  0
   -2.2988    3.3416   -1.6605 H   0  0  0  0  0  0  0  0  0  0  0  0
   -3.4634    2.0559   -1.3856 H   0  0  0  0  0  0  0  0  0  0  0  0
   -2.2595    2.4130   -0.1560 H   0  0  0  0  0  0  0  0  0  0  0  0
    1.7072    3.3562   -2.5177 H   0  0  0  0  0  0  0  0  0  0  0  0
    0.0252    3.5964   -2.9970 H   0  0  0  0  0  0  0  0  0  0  0  0
    1.2785    4.3355   -0.2907 H   0  0  0  0  0  0  0  0  0  0  0  0
    0.7198    5.4357   -1.5377 H   0  0  0  0  0  0  0  0  0  0  0  0
   -0.4496    4.4821   -0.6388 H   0  0  0  0  0  0  0  0  0  0  0  0
  1  2  1  0  0  0  0
  2  3  1  0  0  0  0
  3  4  1  0  0  0  0
  4  5  1  0  0  0  0
  5  6  1  0  0  0  0
  6  7  1  0  0  0  0
  7  8  1  0  0  0  0
  1  9  1  0  0  0  0
  9 10  1  0  0  0  0
 10 11  1  0  0  0  0
  9 12  1  0  0  0  0
 12 13  1  0  0  0  0
  9 14  1  0  0  0  0
 14 15  1  0  0  0  0
  1 16  1  0  0  0  0
  1 17  1  0  0  0  0
  2 18  1  0  0  0  0
  2 19  1  0  0  0  0
  3 20  1  0  0  0  0
  3 21  1  0  0  0  0
  4 22  1  0  0  0  0
  4 23  1  0  0  0  0
  5 24  1  0  0  0  0
  5 25  1  0  0  0  0
  6 26  1  0  0  0  0
  6 27  1  0  0  0  0
  7 28  1  0  0  0  0
  7 29  1  0  0  0  0
  8 30  1  0  0  0  0
  8 31  1  0  0  0  0
  8 32  1  0  0  0  0
 10 33  1  0  0  0  0
 10 34  1  0  0  0  0
 11 35  1  0  0  0  0
 11 36  1  0  0  0  0
 11 37  1  0  0  0  0
 12 38  1  0  0  0  0
 12 39  1  0  0  0  0
 13 40  1  0  0  0  0
 13 41  1  0  0  0  0
 13 42  1  0  0  0  0
 14 43  1  0  0  0  0
 14 44  1  0  0  0  0
 15 45  1  0  0  0  0
 15 46  1  0  0  0  0
 15 47  1  0  0  0  0
M  CHG  1   1   1
M  END
