42

C          1.40792       -0.27387       -0.51560
C          0.70175        0.99638       -0.99973
N          0.90090        1.18240       -2.56185
C          0.41975       -0.01929       -3.37203
C          0.15717        2.42881       -3.06191
C          2.38883        1.41198       -2.87534
C         -0.80107        1.04852       -0.61097
C         -1.16746        0.93602        0.89953
C         -1.30164       -0.53503        1.34426
C         -0.68706       -0.95061        2.67707
C         -1.28894       -0.25287        3.89023
C         -0.64952        1.09548        4.19201
C         -0.90773        2.16531        3.14042
C         -0.30279        1.86159        1.76947
H          0.91913       -1.18025       -0.88439
H          1.41148       -0.32302        0.57578
H          2.45903       -0.30912       -0.81023
H          1.20629        1.86470       -0.55910
H         -0.63726       -0.19237       -3.16124
H          0.55496        0.20825       -4.43424
H          1.02031       -0.89262       -3.10719
H          0.42495        3.27104       -2.41803
H          0.46130        2.62612       -4.09485
H         -0.91800        2.23370       -3.04058
H          2.74981        2.23475       -2.25211
H          2.94505        0.49352       -2.67779
H          2.48541        1.66579       -3.93576
H         -1.20324        2.01795       -0.92904
H         -1.36854        0.29217       -1.16465
H         -2.19045        1.33971        0.95708
H         -2.37339       -0.77817        1.37350
H         -0.89937       -1.20329        0.57506
H          0.40153       -0.82859        2.65853
H         -0.86530       -2.02815        2.79006
H         -1.12610       -0.89560        4.76485
H         -2.37457       -0.14793        3.78027
H          0.43137        0.96995        4.33263
H         -1.04286        1.45530        5.15094
H         -0.46126        3.09870        3.50682
H         -1.98399        2.35589        3.05240
H          0.71561        1.47510        1.88158
H         -0.20950        2.82374        1.24792
