 xtb: 6.7.1 (edcfbbe)
          12202407043D

 28 28  0     0  0            999 V2000
    2.3118   -0.0902   -0.0920 O   0  0  0  0  0  0  0  0  0  0  0  0
    0.9727   -0.0472   -0.0760 C   0  0  0  0  0  0  0  0  0  0  0  0
    0.3500    1.1396   -0.4702 C   0  0  0  0  0  0  0  0  0  0  0  0
   -1.0234    1.2371   -0.4679 C   0  0  0  0  0  0  0  0  0  0  0  0
   -1.8173    0.1638   -0.0642 C   0  0  0  0  0  0  0  0  0  0  0  0
   -1.1927   -1.0227    0.3098 C   0  0  0  0  0  0  0  0  0  0  0  0
    0.1836   -1.1309    0.3069 C   0  0  0  0  0  0  0  0  0  0  0  0
   -3.3167    0.2673   -0.0811 C   0  0  0  0  0  0  0  0  0  0  0  0
   -3.9168    0.7858    1.2018 N   0  0  0  0  0  0  0  0  0  0  0  0
   -3.4364    2.1510    1.4729 C   0  0  0  0  0  0  0  0  0  0  0  0
   -5.3832    0.8048    1.0623 C   0  0  0  0  0  0  0  0  0  0  0  0
   -3.5458   -0.0899    2.3257 C   0  0  0  0  0  0  0  0  0  0  0  0
    2.6452   -0.9603    0.1636 H   0  0  0  0  0  0  0  0  0  0  0  0
    0.9677    1.9638   -0.7864 H   0  0  0  0  0  0  0  0  0  0  0  0
   -1.4824    2.1544   -0.8060 H   0  0  0  0  0  0  0  0  0  0  0  0
   -1.7834   -1.8829    0.5892 H   0  0  0  0  0  0  0  0  0  0  0  0
    0.6504   -2.0631    0.5910 H   0  0  0  0  0  0  0  0  0  0  0  0
   -3.6315    0.9417   -0.8799 H   0  0  0  0  0  0  0  0  0  0  0  0
   -3.7513   -0.7173   -0.2650 H   0  0  0  0  0  0  0  0  0  0  0  0
   -3.7227    2.8180    0.6619 H   0  0  0  0  0  0  0  0  0  0  0  0
   -3.8699    2.5228    2.3995 H   0  0  0  0  0  0  0  0  0  0  0  0
   -2.3518    2.1519    1.5642 H   0  0  0  0  0  0  0  0  0  0  0  0
   -5.7591   -0.1997    0.8750 H   0  0  0  0  0  0  0  0  0  0  0  0
   -5.8424    1.1835    1.9740 H   0  0  0  0  0  0  0  0  0  0  0  0
   -5.6764    1.4459    0.2326 H   0  0  0  0  0  0  0  0  0  0  0  0
   -3.9114   -1.1000    2.1516 H   0  0  0  0  0  0  0  0  0  0  0  0
   -2.4627   -0.1203    2.4299 H   0  0  0  0  0  0  0  0  0  0  0  0
   -3.9803    0.2842    3.2508 H   0  0  0  0  0  0  0  0  0  0  0  0
  1  2  1  0  0  0  0
  2  3  4  0  0  0  0
  3  4  4  0  0  0  0
  4  5  4  0  0  0  0
  5  6  4  0  0  0  0
  2  7  4  0  0  0  0
  6  7  4  0  0  0  0
  5  8  1  0  0  0  0
  8  9  1  0  0  0  0
  9 10  1  0  0  0  0
  9 11  1  0  0  0  0
  9 12  1  0  0  0  0
  1 13  1  0  0  0  0
  3 14  1  0  0  0  0
  4 15  1  0  0  0  0
  6 16  1  0  0  0  0
  7 17  1  0  0  0  0
  8 18  1  0  0  0  0
  8 19  1  0  0  0  0
 10 20  1  0  0  0  0
 10 21  1  0  0  0  0
 10 22  1  0  0  0  0
 11 23  1  0  0  0  0
 11 24  1  0  0  0  0
 11 25  1  0  0  0  0
 12 26  1  0  0  0  0
 12 27  1  0  0  0  0
 12 28  1  0  0  0  0
M  CHG  1   1   1
M  END
