33

C          1.55459        0.06738       -0.37314
C          0.25955        0.76575       -0.79922
C          0.43581        1.71501       -1.99407
C         -0.57440        1.48037       -3.12018
C         -2.02981        1.78839       -2.76569
C         -2.30344        3.27596       -2.61251
S          1.82301       -1.54779       -1.17736
C          2.04592       -1.13064       -2.84070
N          3.08508       -0.36630       -3.11020
C          3.49539        0.12326       -4.42173
N          1.23993       -1.58633       -3.78217
C          0.09972       -2.48903       -3.56365
H          1.49357       -0.14790        0.69948
H          2.42958        0.70998       -0.51395
H         -0.53586        0.03115       -0.96783
H         -0.07597        1.37919        0.04809
H          0.36188        2.75094       -1.64209
H          1.44205        1.62502       -2.41499
H         -0.27951        2.08363       -3.98763
H         -0.51250        0.43594       -3.44026
H         -2.66687        1.40368       -3.57141
H         -2.32940        1.26326       -1.85272
H         -2.00911        3.82293       -3.51410
H         -3.37277        3.44530       -2.45066
H         -1.76458        3.69806       -1.75980
H          3.65263       -0.13604       -2.30198
H          2.75444        0.83743       -4.79053
H          4.46208        0.62400       -4.32505
H          3.59407       -0.71340       -5.11806
H          1.42141       -1.31678       -4.73771
H         -0.39380       -2.66069       -4.52438
H          0.45543       -3.44651       -3.17427
H         -0.61773       -2.03076       -2.87814
