36

C          1.80139        0.00108        0.02891
C          1.15370       -0.98495        0.98808
C          1.01315       -0.46812        2.42474
C          0.30574        0.87687        2.63657
N         -1.25154        0.83374        2.76877
C         -1.85293        0.27785        1.48674
C         -1.64165       -0.02394        3.97911
C         -3.10908        0.13452        4.34742
C         -3.44786        1.58039        4.66830
C         -3.10752        2.52285        3.51574
C         -1.68265        2.30687        2.98408
C         -4.19564        2.52688        2.43979
H          1.14428        0.85074       -0.17689
H          2.00926       -0.49010       -0.92739
H          2.74772        0.37846        0.42824
H          0.19259       -1.30468        0.58059
H          1.77648       -1.88822        1.01963
H          0.57553       -1.25522        3.04508
H          2.03632       -0.34201        2.80625
H          0.66725        1.30386        3.58096
H          0.53875        1.59507        1.84408
H         -1.41983        0.81165        0.63629
H         -1.64199       -0.79142        1.43728
H         -2.93105        0.40670        1.49648
H         -1.00188        0.28336        4.81517
H         -1.43140       -1.06971        3.73707
H         -3.32182       -0.48472        5.22689
H         -3.75351       -0.24339        3.54632
H         -4.50767        1.66492        4.93572
H         -2.87958        1.88617        5.55668
H         -3.11975        3.54317        3.92570
H         -1.51371        2.83943        2.04077
H         -0.98773        2.71756        3.72829
H         -5.09144        3.03071        2.82171
H         -3.86971        3.07222        1.54841
H         -4.51117        1.52508        2.14314
