 xtb: 6.7.1 (edcfbbe)
          12202407043D

 22 22  0     0  0            999 V2000
    1.2763   -0.3238    1.0017 O   0  0  0  0  0  0  0  0  0  0  0  0
    0.6221   -1.5522    0.8059 C   0  0  0  0  0  0  0  0  0  0  0  0
    1.0603   -2.0871   -0.5669 C   0  0  0  0  0  0  0  0  0  0  0  0
    2.5032   -2.2390   -0.5863 N   0  0  0  0  0  0  0  0  0  0  0  0
    3.2645   -1.1659   -0.8117 C   0  0  0  0  0  0  0  0  0  0  0  0
    4.6418   -1.2588   -0.7461 C   0  0  0  0  0  0  0  0  0  0  0  0
    5.2302   -2.4757   -0.4500 C   0  0  0  0  0  0  0  0  0  0  0  0
    4.4265   -3.5966   -0.2169 C   0  0  0  0  0  0  0  0  0  0  0  0
    3.0538   -3.4224   -0.2913 C   0  0  0  0  0  0  0  0  0  0  0  0
    5.0214   -4.9233    0.0949 C   0  0  0  0  0  0  0  0  0  0  0  0
    0.9078    0.1307    1.7662 H   0  0  0  0  0  0  0  0  0  0  0  0
    0.8970   -2.2706    1.5919 H   0  0  0  0  0  0  0  0  0  0  0  0
   -0.4675   -1.4375    0.7979 H   0  0  0  0  0  0  0  0  0  0  0  0
    0.5778   -3.0440   -0.7655 H   0  0  0  0  0  0  0  0  0  0  0  0
    0.7696   -1.3641   -1.3310 H   0  0  0  0  0  0  0  0  0  0  0  0
    2.7620   -0.2353   -1.0234 H   0  0  0  0  0  0  0  0  0  0  0  0
    5.2420   -0.3819   -0.9271 H   0  0  0  0  0  0  0  0  0  0  0  0
    6.3043   -2.5668   -0.3962 H   0  0  0  0  0  0  0  0  0  0  0  0
    2.3805   -4.2489   -0.1149 H   0  0  0  0  0  0  0  0  0  0  0  0
    5.5928   -5.2836   -0.7596 H   0  0  0  0  0  0  0  0  0  0  0  0
    5.7130   -4.8405    0.9311 H   0  0  0  0  0  0  0  0  0  0  0  0
    4.2599   -5.6582    0.3373 H   0  0  0  0  0  0  0  0  0  0  0  0
  1  2  1  0  0  0  0
  2  3  1  0  0  0  0
  3  4  1  0  0  0  0
  4  5  4  0  0  0  0
  5  6  4  0  0  0  0
  6  7  4  0  0  0  0
  7  8  4  0  0  0  0
  4  9  4  0  0  0  0
  8  9  4  0  0  0  0
  8 10  1  0  0  0  0
  1 11  1  0  0  0  0
  2 12  1  0  0  0  0
  2 13  1  0  0  0  0
  3 14  1  0  0  0  0
  3 15  1  0  0  0  0
  5 16  1  0  0  0  0
  6 17  1  0  0  0  0
  7 18  1  0  0  0  0
  9 19  1  0  0  0  0
 10 20  1  0  0  0  0
 10 21  1  0  0  0  0
 10 22  1  0  0  0  0
M  CHG  1   1   1
M  END
