26

O          0.41501        0.56946       -0.67210
N          0.27404       -0.75563       -0.25271
C         -0.92539       -0.99797        0.18106
C         -2.08092       -0.02423        0.21793
N         -2.66293        0.14096       -1.12692
C         -3.26535       -0.87103       -1.86958
C         -3.61962       -0.33225       -3.07058
N         -3.23317        0.97771       -3.02697
C         -2.65500        1.29119       -1.84842
C         -2.16891        2.69755       -1.47932
O         -1.68042        3.37634       -2.64770
C         -2.11842        4.72443       -2.46324
C         -3.45790        4.54344       -1.80161
O         -3.24255        3.45371       -0.89725
H          1.36538        0.60572       -0.91282
H         -1.14688       -2.02693        0.51122
H         -2.85635       -0.41897        0.88186
H         -1.74940        0.93677        0.61517
H         -3.35340       -1.85742       -1.44603
H         -4.09362       -0.70932       -3.95945
H         -3.32847        1.66388       -3.77221
H         -1.36092        2.58827       -0.75367
H         -2.16785        5.25002       -3.41968
H         -1.40583        5.23059       -1.80241
H         -4.21873        4.23246       -2.52649
H         -3.80721        5.43082       -1.26847
