22

O          0.90294       -0.04532        0.75868
C          0.55846       -1.42689        0.80734
C          1.04947       -2.13129       -0.45724
N          2.53175       -2.26811       -0.43196
C          3.30646       -1.17855       -0.64592
C          4.69119       -1.28237       -0.65005
C          5.28122       -2.52315       -0.44794
C          4.47953       -3.64324       -0.23554
C          3.09336       -3.48509       -0.23450
C          5.10478       -4.99696       -0.06470
H          0.45117        0.40071        1.50273
H          1.00159       -1.86471        1.70683
H         -0.53163       -1.49980        0.87011
H          0.61476       -3.13289       -0.53412
H          0.80314       -1.56749       -1.36393
H          2.80787       -0.22744       -0.81374
H          5.30675       -0.40151       -0.81697
H          6.36761       -2.61242       -0.46282
H          2.42320       -4.32675       -0.08569
H          5.49768       -5.35033       -1.02345
H          5.92116       -4.95238        0.66343
H          4.37685       -5.72934        0.29939
