52

C          1.05135        0.29127        0.52064
C          0.56830        1.07572       -0.69007
C          1.22613        0.64223       -2.00312
C          1.04267       -0.83176       -2.37534
C         -0.41061       -1.29400       -2.50045
C         -1.22641       -0.61006       -3.60444
C         -0.69670       -0.92811       -5.00567
C         -1.58521       -0.49651       -6.17338
N         -3.03604       -0.63934       -5.86526
C         -3.85541        0.37863       -5.56731
C         -3.32436        1.77502       -5.44790
C         -3.71244        2.60559       -6.66772
C         -5.11547        3.19978       -6.55773
C         -6.23790        2.17634       -6.39422
C         -6.11411        1.32318       -5.13688
N         -5.16972        0.19848       -5.37654
C         -5.77003       -1.14635       -5.46808
C         -4.75783       -2.18766       -5.07411
C         -3.56873       -2.01599       -5.98157
H          0.73875       -0.75609        0.47118
H          0.63113        0.71727        1.43727
H          2.14247        0.32346        0.60055
H         -0.52183        0.99718       -0.76522
H          0.79006        2.13746       -0.52841
H          0.84488        1.27517       -2.81298
H          2.30230        0.84751       -1.94133
H          1.57330       -1.02438       -3.31498
H          1.54184       -1.45814       -1.62632
H         -0.41209       -2.37643       -2.68324
H         -0.92701       -1.15592       -1.54366
H         -2.25322       -0.97736       -3.50418
H         -1.26464        0.47236       -3.44580
H          0.28719       -0.46407       -5.14486
H         -0.53434       -2.01015       -5.08158
H         -1.34993        0.51592       -6.50828
H         -1.36283       -1.12947       -7.04236
H         -2.23910        1.79645       -5.33175
H         -3.68020        2.24344       -4.52319
H         -3.63056        2.00604       -7.58259
H         -3.00390        3.43665       -6.76845
H         -5.14344        3.90225       -5.71517
H         -5.31340        3.79317       -7.45887
H         -7.18383        2.72940       -6.34377
H         -6.29013        1.53665       -7.28325
H         -7.09984        0.90816       -4.89681
H         -5.79893        1.89638       -4.25910
H         -6.12669       -1.29348       -6.49377
H         -6.63168       -1.21036       -4.79442
H         -5.17887       -3.19317       -5.17308
H         -4.46182       -2.04861       -4.02769
H         -3.82910       -2.19524       -7.03063
H         -2.79117       -2.73351       -5.69869
