 xtb: 6.7.1 (edcfbbe)
          12202407053D

 36 38  0     0  0            999 V2000
    0.2607   -0.1221   -0.1181 C   0  0  0  0  0  0  0  0  0  0  0  0
    0.3037   -0.7651    1.1674 N   0  0  0  0  0  0  0  0  0  0  0  0
    1.2148   -1.7012    1.5538 C   0  0  0  0  0  0  0  0  0  0  0  0
    0.9008   -2.0688    2.8264 C   0  0  0  0  0  0  0  0  0  0  0  0
   -0.1993   -1.3579    3.1946 N   0  0  0  0  0  0  0  0  0  0  0  0
   -0.5389   -0.5706    2.1794 C   0  0  0  0  0  0  0  0  0  0  0  0
   -0.8166   -1.3887    4.5169 C   0  0  0  0  0  0  0  0  0  0  0  0
    0.0073   -0.5491    5.4725 C   0  0  0  0  0  0  0  0  0  0  0  0
    0.2858   -1.0340    6.7432 C   0  0  0  0  0  0  0  0  0  0  0  0
    1.0149   -0.2679    7.6362 C   0  0  0  0  0  0  0  0  0  0  0  0
    1.4776    0.9825    7.2635 C   0  0  0  0  0  0  0  0  0  0  0  0
    1.2038    1.4696    5.9963 C   0  0  0  0  0  0  0  0  0  0  0  0
    0.4694    0.7088    5.1040 C   0  0  0  0  0  0  0  0  0  0  0  0
   -2.2731   -0.9675    4.4191 C   0  0  0  0  0  0  0  0  0  0  0  0
   -2.7813    0.1081    5.1322 C   0  0  0  0  0  0  0  0  0  0  0  0
   -4.1217    0.4420    5.0236 C   0  0  0  0  0  0  0  0  0  0  0  0
   -4.9600   -0.2900    4.2015 C   0  0  0  0  0  0  0  0  0  0  0  0
   -4.4577   -1.3674    3.4893 C   0  0  0  0  0  0  0  0  0  0  0  0
   -3.1224   -1.7077    3.6006 C   0  0  0  0  0  0  0  0  0  0  0  0
   -0.4914    0.6635   -0.1137 H   0  0  0  0  0  0  0  0  0  0  0  0
    0.0118   -0.8478   -0.8940 H   0  0  0  0  0  0  0  0  0  0  0  0
    1.2328    0.3126   -0.3510 H   0  0  0  0  0  0  0  0  0  0  0  0
    2.0049   -2.0350    0.9125 H   0  0  0  0  0  0  0  0  0  0  0  0
    1.3773   -2.7710    3.4796 H   0  0  0  0  0  0  0  0  0  0  0  0
   -1.3758    0.1006    2.1750 H   0  0  0  0  0  0  0  0  0  0  0  0
   -0.7805   -2.4331    4.8520 H   0  0  0  0  0  0  0  0  0  0  0  0
   -0.0771   -2.0072    7.0389 H   0  0  0  0  0  0  0  0  0  0  0  0
    1.2219   -0.6510    8.6230 H   0  0  0  0  0  0  0  0  0  0  0  0
    2.0476    1.5783    7.9586 H   0  0  0  0  0  0  0  0  0  0  0  0
    1.5571    2.4457    5.7021 H   0  0  0  0  0  0  0  0  0  0  0  0
    0.2494    1.1046    4.1215 H   0  0  0  0  0  0  0  0  0  0  0  0
   -2.1380    0.6801    5.7825 H   0  0  0  0  0  0  0  0  0  0  0  0
   -4.5087    1.2752    5.5889 H   0  0  0  0  0  0  0  0  0  0  0  0
   -6.0036   -0.0294    4.1217 H   0  0  0  0  0  0  0  0  0  0  0  0
   -5.1077   -1.9493    2.8545 H   0  0  0  0  0  0  0  0  0  0  0  0
   -2.7389   -2.5593    3.0551 H   0  0  0  0  0  0  0  0  0  0  0  0
  1  2  1  0  0  0  0
  2  3  4  0  0  0  0
  3  4  2  0  0  0  0
  4  5  4  0  0  0  0
  2  6  4  0  0  0  0
  5  6  4  0  0  0  0
  5  7  1  0  0  0  0
  7  8  1  0  0  0  0
  8  9  4  0  0  0  0
  9 10  4  0  0  0  0
 10 11  4  0  0  0  0
 11 12  4  0  0  0  0
  8 13  4  0  0  0  0
 12 13  4  0  0  0  0
  7 14  1  0  0  0  0
 14 15  4  0  0  0  0
 15 16  4  0  0  0  0
 16 17  4  0  0  0  0
 17 18  4  0  0  0  0
 14 19  4  0  0  0  0
 18 19  4  0  0  0  0
  1 20  1  0  0  0  0
  1 21  1  0  0  0  0
  1 22  1  0  0  0  0
  3 23  1  0  0  0  0
  4 24  1  0  0  0  0
  6 25  1  0  0  0  0
  7 26  1  0  0  0  0
  9 27  1  0  0  0  0
 10 28  1  0  0  0  0
 11 29  1  0  0  0  0
 12 30  1  0  0  0  0
 13 31  1  0  0  0  0
 15 32  1  0  0  0  0
 16 33  1  0  0  0  0
 17 34  1  0  0  0  0
 18 35  1  0  0  0  0
 19 36  1  0  0  0  0
M  CHG  1   1   1
M  END
