36

C          0.36016       -0.12665       -0.08981
N          0.33852       -0.80859        1.19751
C          1.14286       -1.87360        1.56368
C          0.80206       -2.20212        2.84436
N         -0.21151       -1.33408        3.22726
C         -0.47416       -0.48956        2.21742
C         -0.86085       -1.31671        4.55870
C          0.01005       -0.48059        5.48555
C          0.49001       -1.04492        6.68130
C          1.30016       -0.30614        7.54593
C          1.63958        1.00737        7.23400
C          1.16927        1.58630        6.05886
C          0.36212        0.84958        5.18964
C         -2.33140       -0.94091        4.42265
C         -2.93720        0.07854        5.17590
C         -4.29332        0.37730        5.01781
C         -5.07080       -0.34384        4.11624
C         -4.49903       -1.37494        3.37827
C         -3.14528       -1.67695        3.53579
H         -0.14668        0.83830       -0.00581
H         -0.15332       -0.74868       -0.82744
H          1.39664        0.03751       -0.39696
H          1.86286       -2.25701        0.86088
H          1.15491       -2.94244        3.54227
H         -1.20661        0.31058        2.21688
H         -0.84901       -2.35551        4.92024
H          0.23756       -2.06696        6.96003
H          1.66495       -0.75313        8.46872
H          2.26674        1.58271        7.91188
H          1.42911        2.61669        5.82495
H          0.00197        1.33916        4.28955
H         -2.37911        0.65347        5.91332
H         -4.74903        1.16730        5.61229
H         -6.12839       -0.11350        4.00457
H         -5.11438       -1.95268        2.69153
H         -2.73039       -2.50445        2.96141
