41

C          1.13844       -0.15348       -0.31854
O          0.24064       -0.89024        0.50339
C          0.73950       -1.97084        1.16753
C         -0.13888       -2.54539        2.08012
C          0.24251       -3.65146        2.84592
C          1.52388       -4.21275        2.71398
C          2.38507       -3.65417        1.75881
C          2.00187       -2.53533        0.99956
N          1.94717       -5.42185        3.57338
C          1.67218       -6.73014        2.73563
C          2.24427       -8.06757        3.21831
C          2.60536       -9.01369        2.23280
C          3.04362      -10.29656        2.57273
C          3.14937      -10.66252        3.90796
C          2.80042       -9.75174        4.89762
C          2.33292       -8.47666        4.55574
C          0.18093       -6.92260        2.41068
C          1.22638       -5.33663        4.92112
C          3.45064       -5.30667        3.88065
H          0.59846        0.71528       -0.70721
H          1.46858       -0.75311       -1.17256
H          1.99209        0.21447        0.26036
H         -1.13740       -2.12356        2.19874
H         -0.50491       -4.05169        3.52221
H          3.37488       -4.05581        1.56236
H          2.70807       -2.13170        0.27991
H          2.18522       -6.52308        1.78484
H          2.51391       -8.77727        1.17249
H          3.28718      -11.01719        1.79438
H          3.48534      -11.66161        4.17748
H          2.87065      -10.04531        5.94382
H          2.02899       -7.85167        5.38185
H         -0.24256       -6.07462        1.86820
H          0.03973       -7.79072        1.75446
H         -0.41954       -7.10773        3.30543
H          0.20213       -5.69999        4.82447
H          1.75986       -5.92522        5.66674
H          1.24345       -4.29692        5.26799
H          4.02770       -5.51956        2.97672
H          3.65484       -4.30000        4.26121
H          3.71522       -6.03953        4.64784
