 xtb: 6.7.1 (edcfbbe)
          12202407043D

 56 56  0     0  0            999 V2000
    0.5123    0.3887    0.1593 C   0  0  0  0  0  0  0  0  0  0  0  0
   -0.0212    0.9209   -1.1675 C   0  0  0  0  0  0  0  0  0  0  0  0
    0.4379    0.0742   -2.3504 C   0  0  0  0  0  0  0  0  0  0  0  0
   -1.4785    0.9761   -1.1270 N   0  0  0  0  0  0  0  0  0  0  0  0
   -2.2379    2.1014   -1.2096 C   0  0  0  0  0  0  0  0  0  0  0  0
   -3.5543    1.7372   -1.1096 C   0  0  0  0  0  0  0  0  0  0  0  0
   -4.7510    2.6094   -1.1705 C   0  0  0  0  0  0  0  0  0  0  0  0
   -5.1801    2.8990   -2.6285 C   0  0  0  0  0  0  0  0  0  0  0  0
   -5.4052    1.6806   -3.3739 N   0  0  0  0  0  0  0  0  0  0  0  0
   -6.5596    0.9372   -3.2829 C   0  0  0  0  0  0  0  0  0  0  0  0
   -6.7972    0.0488   -4.0588 O   0  0  0  0  0  0  0  0  0  0  0  0
   -7.2685    1.3088   -2.2177 O   0  0  0  0  0  0  0  0  0  0  0  0
   -8.6166    0.7937   -1.9822 C   0  0  0  0  0  0  0  0  0  0  0  0
   -9.5123    1.1495   -3.1647 C   0  0  0  0  0  0  0  0  0  0  0  0
   -8.5778   -0.7155   -1.7570 C   0  0  0  0  0  0  0  0  0  0  0  0
   -9.0647    1.5273   -0.7198 C   0  0  0  0  0  0  0  0  0  0  0  0
   -6.4346    3.8099   -2.6080 C   0  0  0  0  0  0  0  0  0  0  0  0
   -7.0090    4.1111   -3.9594 C   0  0  0  0  0  0  0  0  0  0  0  0
   -6.8493    4.2642   -1.5791 O   0  0  0  0  0  0  0  0  0  0  0  0
   -3.5641    0.3728   -0.9742 N   0  0  0  0  0  0  0  0  0  0  0  0
   -2.3023   -0.0546   -0.9829 C   0  0  0  0  0  0  0  0  0  0  0  0
   -4.7226   -0.4964   -0.7845 C   0  0  0  0  0  0  0  0  0  0  0  0
   -4.7101   -1.6304   -1.8039 C   0  0  0  0  0  0  0  0  0  0  0  0
   -4.7321   -1.0149    0.6518 C   0  0  0  0  0  0  0  0  0  0  0  0
    0.2301   -0.6503    0.3079 H   0  0  0  0  0  0  0  0  0  0  0  0
    0.1370    0.9785    0.9923 H   0  0  0  0  0  0  0  0  0  0  0  0
    1.5964    0.4486    0.1621 H   0  0  0  0  0  0  0  0  0  0  0  0
    0.3180    1.9520   -1.3062 H   0  0  0  0  0  0  0  0  0  0  0  0
    0.1563   -0.9676   -2.2223 H   0  0  0  0  0  0  0  0  0  0  0  0
    0.0114    0.4424   -3.2805 H   0  0  0  0  0  0  0  0  0  0  0  0
    1.5196    0.1243   -2.4299 H   0  0  0  0  0  0  0  0  0  0  0  0
   -1.8090    3.0760   -1.3212 H   0  0  0  0  0  0  0  0  0  0  0  0
   -5.6011    2.1730   -0.6486 H   0  0  0  0  0  0  0  0  0  0  0  0
   -4.5291    3.5665   -0.6976 H   0  0  0  0  0  0  0  0  0  0  0  0
   -4.3825    3.4546   -3.1325 H   0  0  0  0  0  0  0  0  0  0  0  0
   -4.8912    1.5335   -4.2284 H   0  0  0  0  0  0  0  0  0  0  0  0
   -9.1557    0.6674   -4.0715 H   0  0  0  0  0  0  0  0  0  0  0  0
  -10.5244    0.8095   -2.9683 H   0  0  0  0  0  0  0  0  0  0  0  0
   -9.5298    2.2269   -3.3124 H   0  0  0  0  0  0  0  0  0  0  0  0
   -7.9512   -0.9596   -0.9012 H   0  0  0  0  0  0  0  0  0  0  0  0
   -9.5840   -1.0720   -1.5593 H   0  0  0  0  0  0  0  0  0  0  0  0
   -8.1962   -1.2209   -2.6400 H   0  0  0  0  0  0  0  0  0  0  0  0
   -8.4602    1.2280    0.1332 H   0  0  0  0  0  0  0  0  0  0  0  0
   -8.9605    2.6006   -0.8549 H   0  0  0  0  0  0  0  0  0  0  0  0
  -10.1036    1.2955   -0.5095 H   0  0  0  0  0  0  0  0  0  0  0  0
   -7.1775    3.2032   -4.5335 H   0  0  0  0  0  0  0  0  0  0  0  0
   -7.9425    4.6565   -3.8491 H   0  0  0  0  0  0  0  0  0  0  0  0
   -6.3047    4.7311   -4.5132 H   0  0  0  0  0  0  0  0  0  0  0  0
   -1.9999   -1.0771   -0.8870 H   0  0  0  0  0  0  0  0  0  0  0  0
   -5.6087    0.1177   -0.9523 H   0  0  0  0  0  0  0  0  0  0  0  0
   -3.8770   -2.3091   -1.6416 H   0  0  0  0  0  0  0  0  0  0  0  0
   -5.6294   -2.2013   -1.7132 H   0  0  0  0  0  0  0  0  0  0  0  0
   -4.6637   -1.2412   -2.8178 H   0  0  0  0  0  0  0  0  0  0  0  0
   -4.7210   -0.1913    1.3623 H   0  0  0  0  0  0  0  0  0  0  0  0
   -5.6327   -1.5978    0.8206 H   0  0  0  0  0  0  0  0  0  0  0  0
   -3.8748   -1.6552    0.8443 H   0  0  0  0  0  0  0  0  0  0  0  0
  1  2  1  0  0  0  0
  2  3  1  0  0  0  0
  2  4  1  0  0  0  0
  4  5  4  0  0  0  0
  5  6  2  0  0  0  0
  6  7  1  0  0  0  0
  7  8  1  0  0  0  0
  8  9  1  0  0  0  0
  9 10  1  0  0  0  0
 10 11  2  0  0  0  0
 10 12  1  0  0  0  0
 12 13  1  0  0  0  0
 13 14  1  0  0  0  0
 13 15  1  0  0  0  0
 13 16  1  0  0  0  0
  8 17  1  0  0  0  0
 17 18  1  0  0  0  0
 17 19  2  0  0  0  0
  6 20  4  0  0  0  0
  4 21  4  0  0  0  0
 20 21  4  0  0  0  0
 20 22  1  0  0  0  0
 22 23  1  0  0  0  0
 22 24  1  0  0  0  0
  1 25  1  0  0  0  0
  1 26  1  0  0  0  0
  1 27  1  0  0  0  0
  2 28  1  0  0  0  0
  3 29  1  0  0  0  0
  3 30  1  0  0  0  0
  3 31  1  0  0  0  0
  5 32  1  0  0  0  0
  7 33  1  0  0  0  0
  7 34  1  0  0  0  0
  8 35  1  0  0  0  0
  9 36  1  0  0  0  0
 14 37  1  0  0  0  0
 14 38  1  0  0  0  0
 14 39  1  0  0  0  0
 15 40  1  0  0  0  0
 15 41  1  0  0  0  0
 15 42  1  0  0  0  0
 16 43  1  0  0  0  0
 16 44  1  0  0  0  0
 16 45  1  0  0  0  0
 18 46  1  0  0  0  0
 18 47  1  0  0  0  0
 18 48  1  0  0  0  0
 21 49  1  0  0  0  0
 22 50  1  0  0  0  0
 23 51  1  0  0  0  0
 23 52  1  0  0  0  0
 23 53  1  0  0  0  0
 24 54  1  0  0  0  0
 24 55  1  0  0  0  0
 24 56  1  0  0  0  0
M  CHG  1   1   1
M  END
