 xtb: 6.7.1 (edcfbbe)
          12202407063D

 36 37  0     0  0            999 V2000
    0.3833   -0.0425    0.3936 C   0  0  0  0  0  0  0  0  0  0  0  0
    0.2058    1.2802   -0.3614 C   0  0  0  0  0  0  0  0  0  0  0  0
    1.0514    1.4188   -1.6289 C   0  0  0  0  0  0  0  0  0  0  0  0
    0.5957    0.6043   -2.8433 C   0  0  0  0  0  0  0  0  0  0  0  0
   -0.8592    0.8165   -3.2692 C   0  0  0  0  0  0  0  0  0  0  0  0
   -1.2380    2.2699   -3.5623 C   0  0  0  0  0  0  0  0  0  0  0  0
   -0.4468    2.8746   -4.7154 C   0  0  0  0  0  0  0  0  0  0  0  0
   -0.1706   -1.1828   -0.3118 N   0  0  0  0  0  0  0  0  0  0  0  0
   -1.4648   -1.3138   -0.5213 C   0  0  0  0  0  0  0  0  0  0  0  0
   -1.9264   -2.6916   -1.3803 S   0  0  0  0  0  0  0  0  0  0  0  0
   -0.2516   -3.1701   -1.4824 C   0  0  0  0  0  0  0  0  0  0  0  0
    0.5676   -2.2233   -0.8418 C   0  0  0  0  0  0  0  0  0  0  0  0
    1.9485   -2.4176   -0.8075 C   0  0  0  0  0  0  0  0  0  0  0  0
    2.4685   -3.5441   -1.4078 C   0  0  0  0  0  0  0  0  0  0  0  0
    1.6461   -4.4779   -2.0407 C   0  0  0  0  0  0  0  0  0  0  0  0
    0.2786   -4.3017   -2.0866 C   0  0  0  0  0  0  0  0  0  0  0  0
   -0.1175    0.0303    1.3632 H   0  0  0  0  0  0  0  0  0  0  0  0
    1.4425   -0.2274    0.5676 H   0  0  0  0  0  0  0  0  0  0  0  0
   -0.8469    1.4368   -0.5953 H   0  0  0  0  0  0  0  0  0  0  0  0
    0.5037    2.0681    0.3322 H   0  0  0  0  0  0  0  0  0  0  0  0
    1.0503    2.4731   -1.9057 H   0  0  0  0  0  0  0  0  0  0  0  0
    2.0859    1.1526   -1.4006 H   0  0  0  0  0  0  0  0  0  0  0  0
    1.2413    0.8797   -3.6779 H   0  0  0  0  0  0  0  0  0  0  0  0
    0.7592   -0.4623   -2.6699 H   0  0  0  0  0  0  0  0  0  0  0  0
   -1.0315    0.2251   -4.1716 H   0  0  0  0  0  0  0  0  0  0  0  0
   -1.5357    0.4267   -2.5005 H   0  0  0  0  0  0  0  0  0  0  0  0
   -2.3003    2.2946   -3.8150 H   0  0  0  0  0  0  0  0  0  0  0  0
   -1.1037    2.8814   -2.6684 H   0  0  0  0  0  0  0  0  0  0  0  0
   -0.5440    2.2615   -5.6081 H   0  0  0  0  0  0  0  0  0  0  0  0
   -0.8236    3.8682   -4.9425 H   0  0  0  0  0  0  0  0  0  0  0  0
    0.6083    2.9643   -4.4704 H   0  0  0  0  0  0  0  0  0  0  0  0
   -2.1806   -0.6022   -0.1494 H   0  0  0  0  0  0  0  0  0  0  0  0
    2.6036   -1.7079   -0.3294 H   0  0  0  0  0  0  0  0  0  0  0  0
    3.5342   -3.7072   -1.3878 H   0  0  0  0  0  0  0  0  0  0  0  0
    2.0863   -5.3485   -2.4996 H   0  0  0  0  0  0  0  0  0  0  0  0
   -0.3650   -5.0162   -2.5729 H   0  0  0  0  0  0  0  0  0  0  0  0
  1  2  1  0  0  0  0
  2  3  1  0  0  0  0
  3  4  1  0  0  0  0
  4  5  1  0  0  0  0
  5  6  1  0  0  0  0
  6  7  1  0  0  0  0
  1  8  1  0  0  0  0
  8  9  4  0  0  0  0
  9 10  2  0  0  0  0
 10 11  1  0  0  0  0
  8 12  1  0  0  0  0
 11 12  4  0  0  0  0
 12 13  4  0  0  0  0
 13 14  4  0  0  0  0
 14 15  4  0  0  0  0
 11 16  4  0  0  0  0
 15 16  4  0  0  0  0
  1 17  1  0  0  0  0
  1 18  1  0  0  0  0
  2 19  1  0  0  0  0
  2 20  1  0  0  0  0
  3 21  1  0  0  0  0
  3 22  1  0  0  0  0
  4 23  1  0  0  0  0
  4 24  1  0  0  0  0
  5 25  1  0  0  0  0
  5 26  1  0  0  0  0
  6 27  1  0  0  0  0
  6 28  1  0  0  0  0
  7 29  1  0  0  0  0
  7 30  1  0  0  0  0
  7 31  1  0  0  0  0
  9 32  1  0  0  0  0
 13 33  1  0  0  0  0
 14 34  1  0  0  0  0
 15 35  1  0  0  0  0
 16 36  1  0  0  0  0
M  CHG  1   1   1
M  END
