 xtb: 6.7.1 (edcfbbe)
          12202407053D

 45 49  0     0  0            999 V2000
    1.0010    0.1137   -0.0273 C   0  0  0  0  0  0  0  0  0  0  0  0
    0.5338    0.1173   -1.4222 C   0  0  0  0  0  0  0  0  0  0  0  0
    0.4895    1.1728   -2.2469 N   0  0  0  0  0  0  0  0  0  0  0  0
    0.9006    2.4007   -1.8207 O   0  0  0  0  0  0  0  0  0  0  0  0
    0.6577    3.4879   -2.7091 C   0  0  0  0  0  0  0  0  0  0  0  0
    1.4989    3.4522   -3.9618 C   0  0  0  0  0  0  0  0  0  0  0  0
    2.8011    2.9643   -3.9079 C   0  0  0  0  0  0  0  0  0  0  0  0
    3.5776    2.9283   -5.0498 C   0  0  0  0  0  0  0  0  0  0  0  0
    3.0443    3.3939   -6.2433 C   0  0  0  0  0  0  0  0  0  0  0  0
    1.7544    3.9014   -6.3091 C   0  0  0  0  0  0  0  0  0  0  0  0
    0.9801    3.9221   -5.1643 C   0  0  0  0  0  0  0  0  0  0  0  0
    3.8534    3.3430   -7.4511 N   0  0  0  0  0  0  0  0  0  0  0  0
    4.9429    2.8294   -7.3586 O   0  0  0  0  0  0  0  0  0  0  0  0
    3.3707    3.8055   -8.4559 O   0  0  0  0  0  0  0  0  0  0  0  0
    0.0043    0.7935   -3.4567 C   0  0  0  0  0  0  0  0  0  0  0  0
   -0.2590   -0.5443   -3.3741 C   0  0  0  0  0  0  0  0  0  0  0  0
    0.0762   -0.9330   -2.1172 N   0  0  0  0  0  0  0  0  0  0  0  0
   -0.0048   -2.1641   -1.5367 O   0  0  0  0  0  0  0  0  0  0  0  0
   -0.4166   -3.2332   -2.3833 C   0  0  0  0  0  0  0  0  0  0  0  0
   -1.8502   -3.1325   -2.8444 C   0  0  0  0  0  0  0  0  0  0  0  0
   -2.8167   -2.6023   -1.9951 C   0  0  0  0  0  0  0  0  0  0  0  0
   -4.1305   -2.5062   -2.4112 C   0  0  0  0  0  0  0  0  0  0  0  0
   -4.4708   -2.9535   -3.6800 C   0  0  0  0  0  0  0  0  0  0  0  0
   -3.5223   -3.5024   -4.5312 C   0  0  0  0  0  0  0  0  0  0  0  0
   -2.2080   -3.5839   -4.1111 C   0  0  0  0  0  0  0  0  0  0  0  0
   -5.8500   -2.8383   -4.1281 N   0  0  0  0  0  0  0  0  0  0  0  0
   -6.6266   -2.3000   -3.3755 O   0  0  0  0  0  0  0  0  0  0  0  0
   -6.1108   -3.2764   -5.2222 O   0  0  0  0  0  0  0  0  0  0  0  0
    0.5041   -0.6771    0.5295 H   0  0  0  0  0  0  0  0  0  0  0  0
    0.8039    1.0793    0.4329 H   0  0  0  0  0  0  0  0  0  0  0  0
    2.0760   -0.0664    0.0196 H   0  0  0  0  0  0  0  0  0  0  0  0
   -0.4105    3.5601   -2.9448 H   0  0  0  0  0  0  0  0  0  0  0  0
    0.9353    4.3506   -2.0950 H   0  0  0  0  0  0  0  0  0  0  0  0
    3.2071    2.6225   -2.9677 H   0  0  0  0  0  0  0  0  0  0  0  0
    4.5899    2.5548   -5.0328 H   0  0  0  0  0  0  0  0  0  0  0  0
    1.3769    4.2670   -7.2517 H   0  0  0  0  0  0  0  0  0  0  0  0
   -0.0245    4.3155   -5.2034 H   0  0  0  0  0  0  0  0  0  0  0  0
   -0.1146    1.4559   -4.2887 H   0  0  0  0  0  0  0  0  0  0  0  0
   -0.6634   -1.1999   -4.1167 H   0  0  0  0  0  0  0  0  0  0  0  0
    0.2709   -3.3374   -3.2309 H   0  0  0  0  0  0  0  0  0  0  0  0
   -0.2913   -4.1019   -1.7291 H   0  0  0  0  0  0  0  0  0  0  0  0
   -2.5396   -2.2746   -1.0045 H   0  0  0  0  0  0  0  0  0  0  0  0
   -4.8974   -2.0991   -1.7704 H   0  0  0  0  0  0  0  0  0  0  0  0
   -3.8251   -3.8521   -5.5063 H   0  0  0  0  0  0  0  0  0  0  0  0
   -1.4616   -4.0102   -4.7644 H   0  0  0  0  0  0  0  0  0  0  0  0
  1  2  1  0  0  0  0
  2  3  4  0  0  0  0
  3  4  1  0  0  0  0
  4  5  1  0  0  0  0
  5  6  1  0  0  0  0
  6  7  4  0  0  0  0
  7  8  4  0  0  0  0
  8  9  4  0  0  0  0
  9 10  4  0  0  0  0
  6 11  4  0  0  0  0
 10 11  4  0  0  0  0
  9 12  1  0  0  0  0
 12 13  4  0  0  0  0
 12 14  4  0  0  0  0
 13 14  1  0  0  0  0
  3 15  4  0  0  0  0
 15 16  2  0  0  0  0
  2 17  4  0  0  0  0
 16 17  4  0  0  0  0
 17 18  1  0  0  0  0
 18 19  1  0  0  0  0
 19 20  1  0  0  0  0
 20 21  4  0  0  0  0
 21 22  4  0  0  0  0
 22 23  4  0  0  0  0
 23 24  4  0  0  0  0
 20 25  4  0  0  0  0
 24 25  4  0  0  0  0
 23 26  1  0  0  0  0
 26 27  4  0  0  0  0
 26 28  4  0  0  0  0
 27 28  1  0  0  0  0
  1 29  1  0  0  0  0
  1 30  1  0  0  0  0
  1 31  1  0  0  0  0
  5 32  1  0  0  0  0
  5 33  1  0  0  0  0
  7 34  1  0  0  0  0
  8 35  1  0  0  0  0
 10 36  1  0  0  0  0
 11 37  1  0  0  0  0
 15 38  1  0  0  0  0
 16 39  1  0  0  0  0
 19 40  1  0  0  0  0
 19 41  1  0  0  0  0
 21 42  1  0  0  0  0
 22 43  1  0  0  0  0
 24 44  1  0  0  0  0
 25 45  1  0  0  0  0
M  CHG  1   1   1
M  END
