 xtb: 6.7.1 (edcfbbe)
          12202407053D

 22 22  0     0  0            999 V2000
    1.1592   -0.4121    0.4394 Cl  0  0  0  0  0  0  0  0  0  0  0  0
    2.8731   -0.0742    0.0019 C   0  0  0  0  0  0  0  0  0  0  0  0
    3.1043   -0.1220   -1.5010 C   0  0  0  0  0  0  0  0  0  0  0  0
    2.6216    1.0613   -2.2693 N   0  0  0  0  0  0  0  0  0  0  0  0
    1.1535    1.2910   -2.2090 C   0  0  0  0  0  0  0  0  0  0  0  0
    0.7917    2.4130   -3.1890 C   0  0  0  0  0  0  0  0  0  0  0  0
    1.4857    3.5919   -2.8763 O   0  0  0  0  0  0  0  0  0  0  0  0
    2.8734    3.4095   -2.9314 C   0  0  0  0  0  0  0  0  0  0  0  0
    3.3174    2.3306   -1.9339 C   0  0  0  0  0  0  0  0  0  0  0  0
    3.1482    0.8804    0.4452 H   0  0  0  0  0  0  0  0  0  0  0  0
    3.4683   -0.8610    0.4655 H   0  0  0  0  0  0  0  0  0  0  0  0
    4.1796   -0.2097   -1.6810 H   0  0  0  0  0  0  0  0  0  0  0  0
    2.6092   -1.0088   -1.9036 H   0  0  0  0  0  0  0  0  0  0  0  0
    2.8397    0.8660   -3.2559 H   0  0  0  0  0  0  0  0  0  0  0  0
    0.8895    1.5845   -1.1930 H   0  0  0  0  0  0  0  0  0  0  0  0
    0.6269    0.3712   -2.4618 H   0  0  0  0  0  0  0  0  0  0  0  0
   -0.2697    2.6510   -3.1093 H   0  0  0  0  0  0  0  0  0  0  0  0
    1.0083    2.0985   -4.2224 H   0  0  0  0  0  0  0  0  0  0  0  0
    3.1911    3.1332   -3.9497 H   0  0  0  0  0  0  0  0  0  0  0  0
    3.3223    4.3693   -2.6723 H   0  0  0  0  0  0  0  0  0  0  0  0
    4.3972    2.1862   -1.9787 H   0  0  0  0  0  0  0  0  0  0  0  0
    3.0271    2.6353   -0.9282 H   0  0  0  0  0  0  0  0  0  0  0  0
  1  2  1  0  0  0  0
  2  3  1  0  0  0  0
  3  4  1  0  0  0  0
  4  5  1  0  0  0  0
  5  6  1  0  0  0  0
  6  7  1  0  0  0  0
  7  8  1  0  0  0  0
  4  9  1  0  0  0  0
  8  9  1  0  0  0  0
  2 10  1  0  0  0  0
  2 11  1  0  0  0  0
  3 12  1  0  0  0  0
  3 13  1  0  0  0  0
  4 14  1  0  0  0  0
  5 15  1  0  0  0  0
  5 16  1  0  0  0  0
  6 17  1  0  0  0  0
  6 18  1  0  0  0  0
  8 19  1  0  0  0  0
  8 20  1  0  0  0  0
  9 21  1  0  0  0  0
  9 22  1  0  0  0  0
M  CHG  1   1   1
M  END
