45

C          1.01547        0.12107       -0.07654
C          0.50954        0.13842       -1.47527
N          0.50761        1.19136       -2.31729
O          1.07948        2.41656       -1.91566
C          0.82698        3.52911       -2.78259
C          1.73108        3.59965       -3.99566
C          2.86830        2.78866       -4.13993
C          3.67324        2.88545       -5.27944
C          3.35528        3.81601       -6.27599
C          2.24228        4.65141       -6.13645
C          1.43711        4.54033       -4.99924
N          4.19268        3.90982       -7.47758
O          5.02173        3.00905       -7.66587
O          4.00562        4.87231       -8.23336
C         -0.03968        0.84244       -3.53580
C         -0.37425       -0.48255       -3.44382
N         -0.02682       -0.88575       -2.16914
O         -0.21324       -2.14060       -1.55262
C         -0.57478       -3.21369       -2.43046
C         -2.04523       -3.26512       -2.78990
C         -3.00996       -2.47338       -2.14627
C         -4.35701       -2.55100       -2.51399
C         -4.75137       -3.44339       -3.51807
C         -3.80847       -4.25985       -4.15091
C         -2.46262       -4.16775       -3.78466
N         -6.16299       -3.51687       -3.91272
O         -6.91788       -2.62744       -3.49629
O         -6.50494       -4.45162       -4.64872
H          0.61473       -0.75783        0.42841
H          0.66980        1.03457        0.40931
H          2.10411        0.08548       -0.13239
H         -0.23014        3.53794       -3.07264
H          1.00337        4.42940       -2.18296
H          3.14993        2.07189       -3.37069
H          4.54652        2.24112       -5.37245
H          1.99291        5.39024       -6.89714
H          0.57956        5.20655       -4.90156
H         -0.12424        1.55448       -4.33681
H         -0.82451       -1.16320       -4.14368
H          0.05390       -3.18412       -3.32799
H         -0.32997       -4.13936       -1.89713
H         -2.73357       -1.78673       -1.34822
H         -5.08634       -1.92192       -2.00528
H         -4.10446       -4.96937       -4.92270
H         -1.74247       -4.81892       -4.28082
