30

C          0.91691       -0.00929       -0.33885
C          0.21158        0.71074        0.54519
C         -1.23778        0.51377        0.84881
N         -1.59722       -0.29684        2.12678
C         -1.14705        0.39337        3.50535
C         -1.45978        1.90225        3.48057
C         -1.91157       -0.23750        4.69331
C          0.35746        0.19292        3.77899
C         -3.13505       -0.46144        2.07386
C         -1.01423       -1.71088        1.97579
H          0.48848       -0.83629       -0.89846
H          1.96098        0.22544       -0.53849
H          0.70608        1.55544        1.02083
H         -1.74653        1.48145        0.91589
H         -1.70617       -0.01695        0.00869
H         -2.51157        2.10610        3.26024
H         -1.24869        2.35274        4.45834
H         -0.84408        2.44181        2.75503
H         -1.79204       -1.32407        4.73470
H         -1.53577        0.15850        5.64508
H         -2.98095       -0.00419        4.66974
H          0.61590       -0.86133        3.92026
H          0.99806        0.60313        2.99914
H          0.64397        0.70380        4.70719
H         -3.41020       -0.86464        1.09363
H         -3.44647       -1.17196        2.84335
H         -3.60136        0.51502        2.21869
H         -1.39864       -2.14563        1.04733
H          0.07489       -1.65739        1.93194
H         -1.33390       -2.31774        2.82578
