 xtb: 6.7.1 (edcfbbe)
          12202407063D

132135  0     0  0            999 V2000
    0.9610   -0.2149   -0.4607 C   0  0  0  0  0  0  0  0  0  0  0  0
   -0.4390   -0.5038    0.0687 C   0  0  0  0  0  0  0  0  0  0  0  0
   -0.5068   -1.7738    0.9214 C   0  0  0  0  0  0  0  0  0  0  0  0
    0.1667   -1.6508    2.2904 C   0  0  0  0  0  0  0  0  0  0  0  0
   -0.6095   -0.7978    3.2956 C   0  0  0  0  0  0  0  0  0  0  0  0
   -1.8686   -1.4609    3.8608 C   0  0  0  0  0  0  0  0  0  0  0  0
   -1.6185   -2.6703    4.7641 C   0  0  0  0  0  0  0  0  0  0  0  0
   -0.7757   -2.3860    6.0074 C   0  0  0  0  0  0  0  0  0  0  0  0
   -1.3687   -1.3516    6.9651 C   0  0  0  0  0  0  0  0  0  0  0  0
   -2.6681   -1.8197    7.6225 C   0  0  0  0  0  0  0  0  0  0  0  0
   -3.0493   -0.9574    8.8261 C   0  0  0  0  0  0  0  0  0  0  0  0
   -3.6009    0.4255    8.4448 C   0  0  0  0  0  0  0  0  0  0  0  0
   -5.0448    0.4421    8.4102 N   0  0  0  0  0  0  0  0  0  0  0  0
   -5.8817    0.3549    7.3288 C   0  0  0  0  0  0  0  0  0  0  0  0
   -5.4157    0.2007    6.0272 C   0  0  0  0  0  0  0  0  0  0  0  0
   -6.1002   -0.1794    4.8837 C   0  0  0  0  0  0  0  0  0  0  0  0
   -5.4694   -0.1281    3.6531 C   0  0  0  0  0  0  0  0  0  0  0  0
   -5.9382   -0.3429    2.3622 C   0  0  0  0  0  0  0  0  0  0  0  0
   -7.1297   -0.8506    1.9197 N   0  0  0  0  0  0  0  0  0  0  0  0
   -8.2397   -1.2983    2.7242 C   0  0  0  0  0  0  0  0  0  0  0  0
   -9.1001   -0.1201    3.1984 C   0  0  0  0  0  0  0  0  0  0  0  0
  -10.0336    0.4335    2.1199 C   0  0  0  0  0  0  0  0  0  0  0  0
  -11.2305   -0.4615    1.7919 C   0  0  0  0  0  0  0  0  0  0  0  0
  -12.1838   -0.7194    2.9621 C   0  0  0  0  0  0  0  0  0  0  0  0
  -12.7376    0.5345    3.6421 C   0  0  0  0  0  0  0  0  0  0  0  0
  -13.5042    1.4832    2.7184 C   0  0  0  0  0  0  0  0  0  0  0  0
  -14.7266    0.8683    2.0342 C   0  0  0  0  0  0  0  0  0  0  0  0
  -15.7892    0.3118    2.9838 C   0  0  0  0  0  0  0  0  0  0  0  0
  -16.3642    1.3229    3.9783 C   0  0  0  0  0  0  0  0  0  0  0  0
  -17.0251    2.5483    3.3450 C   0  0  0  0  0  0  0  0  0  0  0  0
  -18.2241    2.2005    2.4708 C   0  0  0  0  0  0  0  0  0  0  0  0
   -7.1426   -0.8259    0.5431 C   0  0  0  0  0  0  0  0  0  0  0  0
   -5.9089   -0.2972    0.1266 C   0  0  0  0  0  0  0  0  0  0  0  0
   -5.1824   -0.0258    1.2606 N   0  0  0  0  0  0  0  0  0  0  0  0
   -3.8463    0.5179    1.2173 C   0  0  0  0  0  0  0  0  0  0  0  0
   -3.8193    2.0515    1.1584 C   0  0  0  0  0  0  0  0  0  0  0  0
   -4.0037    2.7271    2.5232 C   0  0  0  0  0  0  0  0  0  0  0  0
   -2.8419    2.4297    3.4409 C   0  0  0  0  0  0  0  0  0  0  0  0
   -2.9056    1.8144    4.4765 O   0  0  0  0  0  0  0  0  0  0  0  0
   -1.6983    2.9195    2.9704 O   0  0  0  0  0  0  0  0  0  0  0  0
   -5.6103   -0.1354   -1.2159 C   0  0  0  0  0  0  0  0  0  0  0  0
   -6.5709   -0.5225   -2.1391 C   0  0  0  0  0  0  0  0  0  0  0  0
   -7.7985   -1.0585   -1.7252 C   0  0  0  0  0  0  0  0  0  0  0  0
   -8.0980   -1.2170   -0.3797 C   0  0  0  0  0  0  0  0  0  0  0  0
   -8.9652   -1.5268   -2.8981 Cl  0  0  0  0  0  0  0  0  0  0  0  0
   -6.2428   -0.3353   -3.8164 Cl  0  0  0  0  0  0  0  0  0  0  0  0
   -7.1754    0.4383    7.7857 N   0  0  0  0  0  0  0  0  0  0  0  0
   -7.1472    0.5325    9.1637 C   0  0  0  0  0  0  0  0  0  0  0  0
   -5.7999    0.5225    9.5560 C   0  0  0  0  0  0  0  0  0  0  0  0
   -5.4389    0.5917   10.8910 C   0  0  0  0  0  0  0  0  0  0  0  0
   -6.4596    0.6735   11.8275 C   0  0  0  0  0  0  0  0  0  0  0  0
   -6.0576    0.7556   13.4967 Cl  0  0  0  0  0  0  0  0  0  0  0  0
   -7.8060    0.6863   11.4354 C   0  0  0  0  0  0  0  0  0  0  0  0
   -8.1659    0.6177   10.0963 C   0  0  0  0  0  0  0  0  0  0  0  0
   -9.0414    0.7902   12.6262 Cl  0  0  0  0  0  0  0  0  0  0  0  0
   -8.3637    0.8134    7.0530 C   0  0  0  0  0  0  0  0  0  0  0  0
   -8.6381    2.3191    7.1732 C   0  0  0  0  0  0  0  0  0  0  0  0
   -7.6412    3.1555    6.3621 C   0  0  0  0  0  0  0  0  0  0  0  0
   -7.8979    3.0443    4.8794 C   0  0  0  0  0  0  0  0  0  0  0  0
   -7.1360    2.5755    4.0717 O   0  0  0  0  0  0  0  0  0  0  0  0
   -9.0958    3.5176    4.5454 O   0  0  0  0  0  0  0  0  0  0  0  0
    1.6568   -0.0191    0.3510 H   0  0  0  0  0  0  0  0  0  0  0  0
    0.9461    0.6579   -1.1096 H   0  0  0  0  0  0  0  0  0  0  0  0
    1.3319   -1.0613   -1.0339 H   0  0  0  0  0  0  0  0  0  0  0  0
   -0.7890    0.3554    0.6454 H   0  0  0  0  0  0  0  0  0  0  0  0
   -1.1122   -0.6256   -0.7844 H   0  0  0  0  0  0  0  0  0  0  0  0
   -1.5527   -2.0597    1.0587 H   0  0  0  0  0  0  0  0  0  0  0  0
   -0.0232   -2.5814    0.3681 H   0  0  0  0  0  0  0  0  0  0  0  0
    0.3068   -2.6499    2.7046 H   0  0  0  0  0  0  0  0  0  0  0  0
    1.1594   -1.2188    2.1581 H   0  0  0  0  0  0  0  0  0  0  0  0
    0.0529   -0.5382    4.1226 H   0  0  0  0  0  0  0  0  0  0  0  0
   -0.8983    0.1397    2.8131 H   0  0  0  0  0  0  0  0  0  0  0  0
   -2.4250   -0.7093    4.4244 H   0  0  0  0  0  0  0  0  0  0  0  0
   -2.5063   -1.7928    3.0370 H   0  0  0  0  0  0  0  0  0  0  0  0
   -2.5879   -3.0692    5.0712 H   0  0  0  0  0  0  0  0  0  0  0  0
   -1.1207   -3.4520    4.1878 H   0  0  0  0  0  0  0  0  0  0  0  0
   -0.6413   -3.3253    6.5489 H   0  0  0  0  0  0  0  0  0  0  0  0
    0.2162   -2.0509    5.7006 H   0  0  0  0  0  0  0  0  0  0  0  0
   -0.6323   -1.1647    7.7503 H   0  0  0  0  0  0  0  0  0  0  0  0
   -1.5270   -0.4104    6.4374 H   0  0  0  0  0  0  0  0  0  0  0  0
   -3.4844   -1.8204    6.8984 H   0  0  0  0  0  0  0  0  0  0  0  0
   -2.5294   -2.8459    7.9683 H   0  0  0  0  0  0  0  0  0  0  0  0
   -3.8009   -1.4752    9.4255 H   0  0  0  0  0  0  0  0  0  0  0  0
   -2.1667   -0.8257    9.4534 H   0  0  0  0  0  0  0  0  0  0  0  0
   -3.2988    1.1674    9.1883 H   0  0  0  0  0  0  0  0  0  0  0  0
   -3.2101    0.7423    7.4788 H   0  0  0  0  0  0  0  0  0  0  0  0
   -4.3683    0.4209    5.8870 H   0  0  0  0  0  0  0  0  0  0  0  0
   -7.1112   -0.5369    4.9660 H   0  0  0  0  0  0  0  0  0  0  0  0
   -4.4588    0.2402    3.7014 H   0  0  0  0  0  0  0  0  0  0  0  0
   -8.8346   -1.9827    2.1189 H   0  0  0  0  0  0  0  0  0  0  0  0
   -7.8460   -1.8639    3.5719 H   0  0  0  0  0  0  0  0  0  0  0  0
   -9.6907   -0.4357    4.0588 H   0  0  0  0  0  0  0  0  0  0  0  0
   -8.4254    0.6770    3.5142 H   0  0  0  0  0  0  0  0  0  0  0  0
  -10.4115    1.3997    2.4577 H   0  0  0  0  0  0  0  0  0  0  0  0
   -9.4615    0.6130    1.2068 H   0  0  0  0  0  0  0  0  0  0  0  0
  -11.7846    0.0064    0.9772 H   0  0  0  0  0  0  0  0  0  0  0  0
  -10.8839   -1.4303    1.4246 H   0  0  0  0  0  0  0  0  0  0  0  0
  -13.0163   -1.3166    2.5881 H   0  0  0  0  0  0  0  0  0  0  0  0
  -11.6783   -1.3262    3.7180 H   0  0  0  0  0  0  0  0  0  0  0  0
  -13.3984    0.2146    4.4493 H   0  0  0  0  0  0  0  0  0  0  0  0
  -11.9186    1.0908    4.1067 H   0  0  0  0  0  0  0  0  0  0  0  0
  -13.8222    2.3453    3.3079 H   0  0  0  0  0  0  0  0  0  0  0  0
  -12.8322    1.8580    1.9425 H   0  0  0  0  0  0  0  0  0  0  0  0
  -15.1791    1.6342    1.4018 H   0  0  0  0  0  0  0  0  0  0  0  0
  -14.4039    0.0616    1.3722 H   0  0  0  0  0  0  0  0  0  0  0  0
  -16.6025   -0.0943    2.3800 H   0  0  0  0  0  0  0  0  0  0  0  0
  -15.3686   -0.5225    3.5498 H   0  0  0  0  0  0  0  0  0  0  0  0
  -17.1077    0.8060    4.5903 H   0  0  0  0  0  0  0  0  0  0  0  0
  -15.5725    1.6613    4.6508 H   0  0  0  0  0  0  0  0  0  0  0  0
  -17.3573    3.2066    4.1516 H   0  0  0  0  0  0  0  0  0  0  0  0
  -16.2935    3.1034    2.7551 H   0  0  0  0  0  0  0  0  0  0  0  0
  -18.9424    1.6051    3.0299 H   0  0  0  0  0  0  0  0  0  0  0  0
  -18.7204    3.1081    2.1352 H   0  0  0  0  0  0  0  0  0  0  0  0
  -17.9201    1.6383    1.5918 H   0  0  0  0  0  0  0  0  0  0  0  0
   -3.2789    0.1585    2.0756 H   0  0  0  0  0  0  0  0  0  0  0  0
   -3.3741    0.1171    0.3176 H   0  0  0  0  0  0  0  0  0  0  0  0
   -2.8591    2.3623    0.7445 H   0  0  0  0  0  0  0  0  0  0  0  0
   -4.6044    2.3944    0.4832 H   0  0  0  0  0  0  0  0  0  0  0  0
   -4.0227    3.8074    2.3700 H   0  0  0  0  0  0  0  0  0  0  0  0
   -4.9347    2.4228    3.0013 H   0  0  0  0  0  0  0  0  0  0  0  0
   -0.9556    2.7337    3.5675 H   0  0  0  0  0  0  0  0  0  0  0  0
   -4.6762    0.2775   -1.5564 H   0  0  0  0  0  0  0  0  0  0  0  0
   -9.0513   -1.6281   -0.0961 H   0  0  0  0  0  0  0  0  0  0  0  0
   -4.4122    0.5761   11.2139 H   0  0  0  0  0  0  0  0  0  0  0  0
   -9.2069    0.6257    9.8218 H   0  0  0  0  0  0  0  0  0  0  0  0
   -8.2493    0.5540    6.0055 H   0  0  0  0  0  0  0  0  0  0  0  0
   -9.2035    0.2488    7.4658 H   0  0  0  0  0  0  0  0  0  0  0  0
   -9.6481    2.5249    6.8179 H   0  0  0  0  0  0  0  0  0  0  0  0
   -8.5806    2.6141    8.2214 H   0  0  0  0  0  0  0  0  0  0  0  0
   -7.7587    4.2055    6.6337 H   0  0  0  0  0  0  0  0  0  0  0  0
   -6.6145    2.8477    6.5616 H   0  0  0  0  0  0  0  0  0  0  0  0
   -9.2446    3.4759    3.5871 H   0  0  0  0  0  0  0  0  0  0  0  0
  1  2  1  0  0  0  0
  2  3  1  0  0  0  0
  3  4  1  0  0  0  0
  4  5  1  0  0  0  0
  5  6  1  0  0  0  0
  6  7  1  0  0  0  0
  7  8  1  0  0  0  0
  8  9  1  0  0  0  0
  9 10  1  0  0  0  0
 10 11  1  0  0  0  0
 11 12  1  0  0  0  0
 12 13  1  0  0  0  0
 13 14  1  0  0  0  0
 14 15  4  0  0  0  0
 15 16  4  0  0  0  0
 16 17  4  0  0  0  0
 17 18  4  0  0  0  0
 18 19  1  0  0  0  0
 19 20  1  0  0  0  0
 20 21  1  0  0  0  0
 21 22  1  0  0  0  0
 22 23  1  0  0  0  0
 23 24  1  0  0  0  0
 24 25  1  0  0  0  0
 25 26  1  0  0  0  0
 26 27  1  0  0  0  0
 27 28  1  0  0  0  0
 28 29  1  0  0  0  0
 29 30  1  0  0  0  0
 30 31  1  0  0  0  0
 19 32  1  0  0  0  0
 32 33  4  0  0  0  0
 18 34  1  0  0  0  0
 33 34  1  0  0  0  0
 34 35  1  0  0  0  0
 35 36  1  0  0  0  0
 36 37  1  0  0  0  0
 37 38  1  0  0  0  0
 38 39  2  0  0  0  0
 38 40  1  0  0  0  0
 33 41  4  0  0  0  0
 41 42  4  0  0  0  0
 42 43  4  0  0  0  0
 32 44  4  0  0  0  0
 43 44  4  0  0  0  0
 43 45  1  0  0  0  0
 42 46  1  0  0  0  0
 14 47  1  0  0  0  0
 47 48  1  0  0  0  0
 13 49  1  0  0  0  0
 48 49  4  0  0  0  0
 49 50  4  0  0  0  0
 50 51  4  0  0  0  0
 51 52  1  0  0  0  0
 51 53  4  0  0  0  0
 48 54  4  0  0  0  0
 53 54  4  0  0  0  0
 53 55  1  0  0  0  0
 47 56  1  0  0  0  0
 56 57  1  0  0  0  0
 57 58  1  0  0  0  0
 58 59  1  0  0  0  0
 59 60  2  0  0  0  0
 59 61  1  0  0  0  0
  1 62  1  0  0  0  0
  1 63  1  0  0  0  0
  1 64  1  0  0  0  0
  2 65  1  0  0  0  0
  2 66  1  0  0  0  0
  3 67  1  0  0  0  0
  3 68  1  0  0  0  0
  4 69  1  0  0  0  0
  4 70  1  0  0  0  0
  5 71  1  0  0  0  0
  5 72  1  0  0  0  0
  6 73  1  0  0  0  0
  6 74  1  0  0  0  0
  7 75  1  0  0  0  0
  7 76  1  0  0  0  0
  8 77  1  0  0  0  0
  8 78  1  0  0  0  0
  9 79  1  0  0  0  0
  9 80  1  0  0  0  0
 10 81  1  0  0  0  0
 10 82  1  0  0  0  0
 11 83  1  0  0  0  0
 11 84  1  0  0  0  0
 12 85  1  0  0  0  0
 12 86  1  0  0  0  0
 15 87  1  0  0  0  0
 16 88  1  0  0  0  0
 17 89  1  0  0  0  0
 20 90  1  0  0  0  0
 20 91  1  0  0  0  0
 21 92  1  0  0  0  0
 21 93  1  0  0  0  0
 22 94  1  0  0  0  0
 22 95  1  0  0  0  0
 23 96  1  0  0  0  0
 23 97  1  0  0  0  0
 24 98  1  0  0  0  0
 24 99  1  0  0  0  0
 25100  1  0  0  0  0
 25101  1  0  0  0  0
 26102  1  0  0  0  0
 26103  1  0  0  0  0
 27104  1  0  0  0  0
 27105  1  0  0  0  0
 28106  1  0  0  0  0
 28107  1  0  0  0  0
 29108  1  0  0  0  0
 29109  1  0  0  0  0
 30110  1  0  0  0  0
 30111  1  0  0  0  0
 31112  1  0  0  0  0
 31113  1  0  0  0  0
 31114  1  0  0  0  0
 35115  1  0  0  0  0
 35116  1  0  0  0  0
 36117  1  0  0  0  0
 36118  1  0  0  0  0
 37119  1  0  0  0  0
 37120  1  0  0  0  0
 40121  1  0  0  0  0
 41122  1  0  0  0  0
 44123  1  0  0  0  0
 50124  1  0  0  0  0
 54125  1  0  0  0  0
 56126  1  0  0  0  0
 56127  1  0  0  0  0
 57128  1  0  0  0  0
 57129  1  0  0  0  0
 58130  1  0  0  0  0
 58131  1  0  0  0  0
 61132  1  0  0  0  0
M  CHG  1   1   1
M  END
