 xtb: 6.7.1 (edcfbbe)
          12202407053D

 46 46  0     0  0            999 V2000
    1.1744    0.4850   -0.5910 C   0  0  0  0  0  0  0  0  0  0  0  0
    0.8690   -0.6916   -1.5103 C   0  0  0  0  0  0  0  0  0  0  0  0
    1.3189   -2.0379   -0.9405 C   0  0  0  0  0  0  0  0  0  0  0  0
    0.6657   -2.4288    0.3869 C   0  0  0  0  0  0  0  0  0  0  0  0
   -0.8610   -2.5208    0.3530 C   0  0  0  0  0  0  0  0  0  0  0  0
   -1.4257   -3.5398   -0.6389 C   0  0  0  0  0  0  0  0  0  0  0  0
   -0.9739   -4.9838   -0.4099 C   0  0  0  0  0  0  0  0  0  0  0  0
   -1.2744   -5.5435    0.9830 C   0  0  0  0  0  0  0  0  0  0  0  0
   -2.7477   -5.4911    1.3952 C   0  0  0  0  0  0  0  0  0  0  0  0
   -3.6966   -6.2809    0.4932 C   0  0  0  0  0  0  0  0  0  0  0  0
   -3.4663   -7.7970    0.5244 C   0  0  0  0  0  0  0  0  0  0  0  0
   -3.7496   -8.3410    1.8330 N   0  0  0  0  0  0  0  0  0  0  0  0
   -2.8485   -8.5295    2.8344 C   0  0  0  0  0  0  0  0  0  0  0  0
   -3.5344   -8.9854    3.9196 C   0  0  0  0  0  0  0  0  0  0  0  0
   -4.8463   -9.0632    3.5642 N   0  0  0  0  0  0  0  0  0  0  0  0
   -4.9522   -8.6660    2.2991 C   0  0  0  0  0  0  0  0  0  0  0  0
   -5.9144   -9.5078    4.4180 C   0  0  0  0  0  0  0  0  0  0  0  0
    0.5914    0.4322    0.3253 H   0  0  0  0  0  0  0  0  0  0  0  0
    0.9348    1.4220   -1.0884 H   0  0  0  0  0  0  0  0  0  0  0  0
    2.2301    0.4982   -0.3282 H   0  0  0  0  0  0  0  0  0  0  0  0
   -0.2007   -0.7165   -1.7267 H   0  0  0  0  0  0  0  0  0  0  0  0
    1.3869   -0.5390   -2.4602 H   0  0  0  0  0  0  0  0  0  0  0  0
    1.1270   -2.8145   -1.6843 H   0  0  0  0  0  0  0  0  0  0  0  0
    2.3997   -2.0031   -0.7832 H   0  0  0  0  0  0  0  0  0  0  0  0
    1.0827   -3.3876    0.7043 H   0  0  0  0  0  0  0  0  0  0  0  0
    0.9425   -1.6963    1.1470 H   0  0  0  0  0  0  0  0  0  0  0  0
   -1.2121   -2.7575    1.3605 H   0  0  0  0  0  0  0  0  0  0  0  0
   -1.2706   -1.5421    0.0986 H   0  0  0  0  0  0  0  0  0  0  0  0
   -2.5168   -3.4874   -0.6035 H   0  0  0  0  0  0  0  0  0  0  0  0
   -1.1295   -3.2535   -1.6489 H   0  0  0  0  0  0  0  0  0  0  0  0
   -1.4394   -5.6161   -1.1704 H   0  0  0  0  0  0  0  0  0  0  0  0
    0.1038   -5.0463   -0.5666 H   0  0  0  0  0  0  0  0  0  0  0  0
   -0.9064   -6.5726    1.0234 H   0  0  0  0  0  0  0  0  0  0  0  0
   -0.7042   -4.9772    1.7201 H   0  0  0  0  0  0  0  0  0  0  0  0
   -2.8395   -5.8443    2.4269 H   0  0  0  0  0  0  0  0  0  0  0  0
   -3.0732   -4.4514    1.3882 H   0  0  0  0  0  0  0  0  0  0  0  0
   -4.7278   -6.0737    0.7882 H   0  0  0  0  0  0  0  0  0  0  0  0
   -3.5764   -5.9504   -0.5372 H   0  0  0  0  0  0  0  0  0  0  0  0
   -4.1192   -8.2846   -0.2024 H   0  0  0  0  0  0  0  0  0  0  0  0
   -2.4295   -8.0247    0.2755 H   0  0  0  0  0  0  0  0  0  0  0  0
   -1.8020   -8.3383    2.7135 H   0  0  0  0  0  0  0  0  0  0  0  0
   -3.1848   -9.2529    4.8958 H   0  0  0  0  0  0  0  0  0  0  0  0
   -5.8649   -8.6225    1.7372 H   0  0  0  0  0  0  0  0  0  0  0  0
   -5.9529   -8.8946    5.3186 H   0  0  0  0  0  0  0  0  0  0  0  0
   -6.8641   -9.4319    3.8941 H   0  0  0  0  0  0  0  0  0  0  0  0
   -5.7522  -10.5450    4.7135 H   0  0  0  0  0  0  0  0  0  0  0  0
  1  2  1  0  0  0  0
  2  3  1  0  0  0  0
  3  4  1  0  0  0  0
  4  5  1  0  0  0  0
  5  6  1  0  0  0  0
  6  7  1  0  0  0  0
  7  8  1  0  0  0  0
  8  9  1  0  0  0  0
  9 10  1  0  0  0  0
 10 11  1  0  0  0  0
 11 12  1  0  0  0  0
 12 13  4  0  0  0  0
 13 14  2  0  0  0  0
 14 15  4  0  0  0  0
 12 16  4  0  0  0  0
 15 16  4  0  0  0  0
 15 17  1  0  0  0  0
  1 18  1  0  0  0  0
  1 19  1  0  0  0  0
  1 20  1  0  0  0  0
  2 21  1  0  0  0  0
  2 22  1  0  0  0  0
  3 23  1  0  0  0  0
  3 24  1  0  0  0  0
  4 25  1  0  0  0  0
  4 26  1  0  0  0  0
  5 27  1  0  0  0  0
  5 28  1  0  0  0  0
  6 29  1  0  0  0  0
  6 30  1  0  0  0  0
  7 31  1  0  0  0  0
  7 32  1  0  0  0  0
  8 33  1  0  0  0  0
  8 34  1  0  0  0  0
  9 35  1  0  0  0  0
  9 36  1  0  0  0  0
 10 37  1  0  0  0  0
 10 38  1  0  0  0  0
 11 39  1  0  0  0  0
 11 40  1  0  0  0  0
 13 41  1  0  0  0  0
 14 42  1  0  0  0  0
 16 43  1  0  0  0  0
 17 44  1  0  0  0  0
 17 45  1  0  0  0  0
 17 46  1  0  0  0  0
M  CHG  1   1   1
M  END
