33

C          0.66643        0.23174       -0.17318
C          0.46556       -1.11245       -0.85699
C          1.17117       -2.26476       -0.14346
N          0.47065       -2.69682        1.10340
C         -0.19865       -3.95349        1.22224
N         -0.36153       -4.80253        0.12778
C         -0.82894       -4.32483       -1.18322
C         -0.56410       -6.20725        0.40778
O         -1.48901       -6.30546        1.45266
C         -0.92206       -5.81219        2.63356
N         -0.66277       -4.39642        2.46494
C         -1.31130       -3.48813        3.42616
C          0.94366       -1.99864        2.32546
H          0.17948        0.25812        0.80529
H          0.22947        1.03062       -0.78108
H          1.73002        0.45288       -0.03974
H         -0.60818       -1.30110       -0.93996
H          0.86416       -1.03994       -1.87566
H          1.30453       -3.11965       -0.80583
H          2.19776       -1.97305        0.11192
H         -0.01005       -4.35524       -1.90488
H         -1.63714       -4.96724       -1.54880
H         -1.25111       -3.32457       -1.09259
H          0.39500       -6.68432        0.64350
H         -0.97887       -6.72368       -0.46373
H          0.00813       -6.32955        2.89752
H         -1.63522       -5.98524        3.44542
H         -2.21255       -3.95479        3.83682
H         -0.62496       -3.27115        4.24760
H         -1.63741       -2.57380        2.92388
H          1.83133       -1.39616        2.10811
H          0.16359       -1.32556        2.68622
H          1.24311       -2.72617        3.08372
