36

C          0.48924       -0.16463        0.17644
C          0.19171        1.19584       -0.46578
C          0.94933        1.47675       -1.76852
C          0.37156        0.84486       -3.03822
C         -1.05622        1.26942       -3.40447
C         -1.26117        2.76610       -3.65337
C         -0.49662        3.28777       -4.86005
N         -0.06040       -1.33601       -0.51690
C         -1.34092       -1.41058       -0.83630
S         -1.71675       -2.88815       -1.60287
C         -0.11113       -3.47495       -1.38939
C          0.66787       -2.49466       -0.77309
C          2.01768       -2.77589       -0.47759
C          2.54127       -4.03301       -0.80886
C          1.75001       -4.99287       -1.43064
C          0.41325       -4.73007       -1.73650
H          0.06844       -0.17887        1.19060
H          1.57215       -0.25990        0.29220
H         -0.88321        1.35096       -0.59179
H          0.51363        1.95635        0.25854
H          0.99569        2.56340       -1.90986
H          1.99078        1.15023       -1.65698
H          1.03961        1.08547       -3.87404
H          0.40128       -0.24564       -2.94958
H         -1.35705        0.71876       -4.30476
H         -1.74942        0.95379       -2.61828
H         -2.33067        2.94235       -3.82232
H         -0.99072        3.34702       -2.76533
H         -0.74873        2.71769       -5.76004
H         -0.75349        4.33625       -5.04317
H          0.58464        3.23230       -4.70571
H         -2.07757       -0.63659       -0.66040
H          2.67647       -2.06368        0.00985
H          3.58035       -4.26705       -0.57570
H          2.17574       -5.96562       -1.67900
H         -0.20202       -5.48774       -2.21727
