 xtb: 6.7.1 (edcfbbe)
          12202407063D

 25 25  0     0  0            999 V2000
    1.3181    0.0912   -0.2200 C   0  0  0  0  0  0  0  0  0  0  0  0
    0.4170   -1.1280   -0.3716 C   0  0  0  0  0  0  0  0  0  0  0  0
    0.7734   -2.2561    0.5991 C   0  0  0  0  0  0  0  0  0  0  0  0
    0.3121   -1.9976    2.0378 C   0  0  0  0  0  0  0  0  0  0  0  0
   -1.1336   -2.0000    2.1324 N   0  0  0  0  0  0  0  0  0  0  0  0
   -1.8987   -3.0827    1.9927 C   0  0  0  0  0  0  0  0  0  0  0  0
   -3.1852   -2.7498    2.0677 N   0  0  0  0  0  0  0  0  0  0  0  0
   -4.3100   -3.6390    1.9629 C   0  0  0  0  0  0  0  0  0  0  0  0
   -3.2553   -1.3977    2.2625 C   0  0  0  0  0  0  0  0  0  0  0  0
   -5.0271   -0.3337    2.4486 I   0  0  0  0  0  0  0  0  0  0  0  0
   -1.9617   -0.9240    2.3015 C   0  0  0  0  0  0  0  0  0  0  0  0
   -1.3642    1.0408    2.5993 I   0  0  0  0  0  0  0  0  0  0  0  0
    1.2518    0.5265    0.7740 H   0  0  0  0  0  0  0  0  0  0  0  0
    1.0326    0.8544   -0.9382 H   0  0  0  0  0  0  0  0  0  0  0  0
    2.3538   -0.1794   -0.4070 H   0  0  0  0  0  0  0  0  0  0  0  0
   -0.6293   -0.8364   -0.2427 H   0  0  0  0  0  0  0  0  0  0  0  0
    0.5207   -1.5102   -1.3877 H   0  0  0  0  0  0  0  0  0  0  0  0
    0.3392   -3.1955    0.2510 H   0  0  0  0  0  0  0  0  0  0  0  0
    1.8563   -2.3795    0.6175 H   0  0  0  0  0  0  0  0  0  0  0  0
    0.6980   -2.7771    2.6988 H   0  0  0  0  0  0  0  0  0  0  0  0
    0.6768   -1.0302    2.3851 H   0  0  0  0  0  0  0  0  0  0  0  0
   -1.5279   -4.0796    1.8497 H   0  0  0  0  0  0  0  0  0  0  0  0
   -3.9581   -4.6588    1.8260 H   0  0  0  0  0  0  0  0  0  0  0  0
   -4.9170   -3.5838    2.8680 H   0  0  0  0  0  0  0  0  0  0  0  0
   -4.9335   -3.3541    1.1135 H   0  0  0  0  0  0  0  0  0  0  0  0
  1  2  1  0  0  0  0
  2  3  1  0  0  0  0
  3  4  1  0  0  0  0
  4  5  1  0  0  0  0
  5  6  4  0  0  0  0
  6  7  4  0  0  0  0
  7  8  1  0  0  0  0
  7  9  1  0  0  0  0
  9 10  1  0  0  0  0
  5 11  4  0  0  0  0
  9 11  4  0  0  0  0
 11 12  1  0  0  0  0
  1 13  1  0  0  0  0
  1 14  1  0  0  0  0
  1 15  1  0  0  0  0
  2 16  1  0  0  0  0
  2 17  1  0  0  0  0
  3 18  1  0  0  0  0
  3 19  1  0  0  0  0
  4 20  1  0  0  0  0
  4 21  1  0  0  0  0
  6 22  1  0  0  0  0
  8 23  1  0  0  0  0
  8 24  1  0  0  0  0
  8 25  1  0  0  0  0
M  CHG  1   1   1
M  END
