 xtb: 6.7.1 (edcfbbe)
          12202407063D

 55 56  0     0  0            999 V2000
    1.7458   -0.3607    0.4051 C   0  0  0  0  0  0  0  0  0  0  0  0
    1.0347    0.9870    0.4286 C   0  0  0  0  0  0  0  0  0  0  0  0
    1.2706    1.8170   -0.8338 C   0  0  0  0  0  0  0  0  0  0  0  0
    0.7822    1.1718   -2.1325 C   0  0  0  0  0  0  0  0  0  0  0  0
   -0.7043    0.8109   -2.1582 C   0  0  0  0  0  0  0  0  0  0  0  0
   -1.6600    1.9800   -1.9212 C   0  0  0  0  0  0  0  0  0  0  0  0
   -1.5892    3.0679   -3.0043 C   0  0  0  0  0  0  0  0  0  0  0  0
   -1.9157    2.5220   -4.3572 C   0  0  0  0  0  0  0  0  0  0  0  0
   -3.2000    2.0701   -4.6482 C   0  0  0  0  0  0  0  0  0  0  0  0
   -3.5077    1.5326   -5.8815 C   0  0  0  0  0  0  0  0  0  0  0  0
   -2.5332    1.4330   -6.8705 C   0  0  0  0  0  0  0  0  0  0  0  0
   -1.2547    1.8931   -6.6012 C   0  0  0  0  0  0  0  0  0  0  0  0
   -0.9580    2.4261   -5.3571 C   0  0  0  0  0  0  0  0  0  0  0  0
   -2.9068    0.8519   -8.1843 N   0  0  0  0  0  0  0  0  0  0  0  0
   -3.9297    1.7348   -8.8483 C   0  0  0  0  0  0  0  0  0  0  0  0
   -3.4125    3.1208   -9.1317 C   0  0  0  0  0  0  0  0  0  0  0  0
   -2.9164    3.4379  -10.3925 C   0  0  0  0  0  0  0  0  0  0  0  0
   -2.4503    4.7125  -10.6621 C   0  0  0  0  0  0  0  0  0  0  0  0
   -2.4728    5.6822   -9.6738 C   0  0  0  0  0  0  0  0  0  0  0  0
   -2.9735    5.3766   -8.4194 C   0  0  0  0  0  0  0  0  0  0  0  0
   -3.4456    4.1044   -8.1491 C   0  0  0  0  0  0  0  0  0  0  0  0
   -1.7529    0.7027   -9.0890 C   0  0  0  0  0  0  0  0  0  0  0  0
   -3.4792   -0.4944   -7.9716 C   0  0  0  0  0  0  0  0  0  0  0  0
    1.3348   -1.0112   -0.3629 H   0  0  0  0  0  0  0  0  0  0  0  0
    1.6335   -0.8602    1.3639 H   0  0  0  0  0  0  0  0  0  0  0  0
    2.8080   -0.2274    0.2125 H   0  0  0  0  0  0  0  0  0  0  0  0
   -0.0351    0.8322    0.5804 H   0  0  0  0  0  0  0  0  0  0  0  0
    1.4017    1.5623    1.2813 H   0  0  0  0  0  0  0  0  0  0  0  0
    0.7922    2.7906   -0.7076 H   0  0  0  0  0  0  0  0  0  0  0  0
    2.3436    1.9973   -0.9340 H   0  0  0  0  0  0  0  0  0  0  0  0
    1.0071    1.8510   -2.9575 H   0  0  0  0  0  0  0  0  0  0  0  0
    1.3526    0.2590   -2.3108 H   0  0  0  0  0  0  0  0  0  0  0  0
   -0.9326    0.3553   -3.1267 H   0  0  0  0  0  0  0  0  0  0  0  0
   -0.8975    0.0567   -1.3944 H   0  0  0  0  0  0  0  0  0  0  0  0
   -2.6785    1.5882   -1.8765 H   0  0  0  0  0  0  0  0  0  0  0  0
   -1.4446    2.4399   -0.9574 H   0  0  0  0  0  0  0  0  0  0  0  0
   -2.3084    3.8499   -2.7501 H   0  0  0  0  0  0  0  0  0  0  0  0
   -0.5950    3.5130   -3.0123 H   0  0  0  0  0  0  0  0  0  0  0  0
   -3.9745    2.1425   -3.9006 H   0  0  0  0  0  0  0  0  0  0  0  0
   -4.5212    1.2043   -6.0533 H   0  0  0  0  0  0  0  0  0  0  0  0
   -0.4643    1.8546   -7.3303 H   0  0  0  0  0  0  0  0  0  0  0  0
    0.0459    2.7751   -5.1720 H   0  0  0  0  0  0  0  0  0  0  0  0
   -4.2264    1.2483   -9.7802 H   0  0  0  0  0  0  0  0  0  0  0  0
   -4.7997    1.7936   -8.1932 H   0  0  0  0  0  0  0  0  0  0  0  0
   -2.9113    2.6933  -11.1758 H   0  0  0  0  0  0  0  0  0  0  0  0
   -2.0760    4.9483  -11.6459 H   0  0  0  0  0  0  0  0  0  0  0  0
   -2.1128    6.6767   -9.8848 H   0  0  0  0  0  0  0  0  0  0  0  0
   -3.0076    6.1324   -7.6506 H   0  0  0  0  0  0  0  0  0  0  0  0
   -3.8515    3.8833   -7.1733 H   0  0  0  0  0  0  0  0  0  0  0  0
   -0.9991    0.0638   -8.6332 H   0  0  0  0  0  0  0  0  0  0  0  0
   -2.0843    0.2417  -10.0183 H   0  0  0  0  0  0  0  0  0  0  0  0
   -1.3256    1.6761   -9.3209 H   0  0  0  0  0  0  0  0  0  0  0  0
   -2.7615   -1.1126   -7.4342 H   0  0  0  0  0  0  0  0  0  0  0  0
   -4.3962   -0.4437   -7.3909 H   0  0  0  0  0  0  0  0  0  0  0  0
   -3.7031   -0.9602   -8.9299 H   0  0  0  0  0  0  0  0  0  0  0  0
  1  2  1  0  0  0  0
  2  3  1  0  0  0  0
  3  4  1  0  0  0  0
  4  5  1  0  0  0  0
  5  6  1  0  0  0  0
  6  7  1  0  0  0  0
  7  8  1  0  0  0  0
  8  9  4  0  0  0  0
  9 10  4  0  0  0  0
 10 11  4  0  0  0  0
 11 12  4  0  0  0  0
  8 13  4  0  0  0  0
 12 13  4  0  0  0  0
 11 14  1  0  0  0  0
 14 15  1  0  0  0  0
 15 16  1  0  0  0  0
 16 17  4  0  0  0  0
 17 18  4  0  0  0  0
 18 19  4  0  0  0  0
 19 20  4  0  0  0  0
 16 21  4  0  0  0  0
 20 21  4  0  0  0  0
 14 22  1  0  0  0  0
 14 23  1  0  0  0  0
  1 24  1  0  0  0  0
  1 25  1  0  0  0  0
  1 26  1  0  0  0  0
  2 27  1  0  0  0  0
  2 28  1  0  0  0  0
  3 29  1  0  0  0  0
  3 30  1  0  0  0  0
  4 31  1  0  0  0  0
  4 32  1  0  0  0  0
  5 33  1  0  0  0  0
  5 34  1  0  0  0  0
  6 35  1  0  0  0  0
  6 36  1  0  0  0  0
  7 37  1  0  0  0  0
  7 38  1  0  0  0  0
  9 39  1  0  0  0  0
 10 40  1  0  0  0  0
 12 41  1  0  0  0  0
 13 42  1  0  0  0  0
 15 43  1  0  0  0  0
 15 44  1  0  0  0  0
 17 45  1  0  0  0  0
 18 46  1  0  0  0  0
 19 47  1  0  0  0  0
 20 48  1  0  0  0  0
 21 49  1  0  0  0  0
 22 50  1  0  0  0  0
 22 51  1  0  0  0  0
 22 52  1  0  0  0  0
 23 53  1  0  0  0  0
 23 54  1  0  0  0  0
 23 55  1  0  0  0  0
M  CHG  1   1   1
M  END
