 xtb: 6.7.1 (edcfbbe)
          12202407063D

 20 19  0     0  0            999 V2000
    0.9402   -0.1071   -0.0997 C   0  0  0  0  0  0  0  0  0  0  0  0
    0.4847   -1.1929    0.8704 C   0  0  0  0  0  0  0  0  0  0  0  0
    0.9430   -0.9695    2.3185 C   0  0  0  0  0  0  0  0  0  0  0  0
    0.4966    0.3856    2.8730 C   0  0  0  0  0  0  0  0  0  0  0  0
   -0.9932    0.4828    2.8501 N   0  0  0  0  0  0  0  0  0  0  0  0
    0.4685   -2.1092    3.2203 C   0  0  0  0  0  0  0  0  0  0  0  0
    0.4472    0.8483    0.0709 H   0  0  0  0  0  0  0  0  0  0  0  0
    0.7168   -0.4109   -1.1182 H   0  0  0  0  0  0  0  0  0  0  0  0
    2.0141    0.0413   -0.0265 H   0  0  0  0  0  0  0  0  0  0  0  0
   -0.6024   -1.3109    0.8197 H   0  0  0  0  0  0  0  0  0  0  0  0
    0.9075   -2.1422    0.5413 H   0  0  0  0  0  0  0  0  0  0  0  0
    2.0360   -0.9559    2.3288 H   0  0  0  0  0  0  0  0  0  0  0  0
    0.8361    0.4991    3.9032 H   0  0  0  0  0  0  0  0  0  0  0  0
    0.9098    1.1994    2.2777 H   0  0  0  0  0  0  0  0  0  0  0  0
   -1.3780   -0.2966    3.4016 H   0  0  0  0  0  0  0  0  0  0  0  0
   -1.3290    1.3736    3.2316 H   0  0  0  0  0  0  0  0  0  0  0  0
   -1.3105    0.3807    1.8761 H   0  0  0  0  0  0  0  0  0  0  0  0
    0.9449   -3.0370    2.9188 H   0  0  0  0  0  0  0  0  0  0  0  0
    0.7367   -1.9270    4.2580 H   0  0  0  0  0  0  0  0  0  0  0  0
   -0.6069   -2.2705    3.1505 H   0  0  0  0  0  0  0  0  0  0  0  0
  1  2  1  0  0  0  0
  2  3  1  0  0  0  0
  3  4  1  0  0  0  0
  4  5  1  0  0  0  0
  3  6  1  0  0  0  0
  1  7  1  0  0  0  0
  1  8  1  0  0  0  0
  1  9  1  0  0  0  0
  2 10  1  0  0  0  0
  2 11  1  0  0  0  0
  3 12  1  0  0  0  0
  4 13  1  0  0  0  0
  4 14  1  0  0  0  0
  5 15  1  0  0  0  0
  5 16  1  0  0  0  0
  5 17  1  0  0  0  0
  6 18  1  0  0  0  0
  6 19  1  0  0  0  0
  6 20  1  0  0  0  0
M  CHG  1   1   1
M  END
