18

C         -2.13196       -0.00428        0.31205
N         -0.77268        0.03996       -0.30518
C          0.07656        1.20014        0.15183
C          1.47759        0.72641       -0.16527
C          1.44361       -0.72991        0.25782
C          0.05056       -1.21832       -0.11196
H         -2.67088       -0.84903       -0.12468
H         -2.02542       -0.12458        1.39309
H         -2.64056        0.93270        0.07089
H         -0.90630        0.15345       -1.31910
H         -0.22514        2.09412       -0.40038
H         -0.07749        1.33218        1.22818
H          1.67497        0.80602       -1.24087
H          2.24239        1.29908        0.36667
H          2.22812       -1.32192       -0.22292
H          1.58780       -0.80932        1.34209
H         -0.39464       -1.82743        0.68080
H          0.03214       -1.75922       -1.06292
