53

C          1.09113        0.52385       -0.52141
C          0.81044       -0.96808       -0.60335
C          1.21629       -1.73266        0.65817
C          0.47510       -1.33576        1.93989
C         -1.05061       -1.48316        1.90064
C         -1.57683       -2.86901        1.50992
C         -1.04982       -4.03701        2.34899
C         -1.46063       -4.02301        3.82515
C         -2.93861       -4.32313        4.10476
C         -3.47556       -5.70282        3.68873
N         -3.25412       -6.87313        4.68660
C         -3.78047       -6.50248        6.12470
C         -5.22790       -6.03745        6.17700
C         -4.07786       -8.11701        4.23088
C         -3.70855       -8.70239        2.87917
C         -1.76635       -7.24547        4.91589
C         -0.93176       -7.52409        3.67794
H          0.47119        1.00726        0.23907
H          0.87089        1.00038       -1.48205
H          2.14278        0.71284       -0.28366
H         -0.24913       -1.13019       -0.82774
H          1.37249       -1.38033       -1.45029
H          1.08106       -2.80456        0.47334
H          2.29175       -1.59242        0.82608
H          0.87297       -1.93492        2.76798
H          0.71669       -0.29628        2.19230
H         -1.44974       -1.20791        2.88416
H         -1.46461       -0.74733        1.20052
H         -2.67215       -2.85156        1.54773
H         -1.32222       -3.06090        0.46060
H         -1.37544       -4.96722        1.87508
H          0.04458       -4.05684        2.29862
H         -0.82648       -4.72822        4.36478
H         -1.22327       -3.04346        4.25677
H         -3.14008       -4.12104        5.15997
H         -3.53170       -3.57440        3.56380
H         -4.56217       -5.62710        3.56344
H         -3.08423       -6.00301        2.71758
H         -3.65463       -7.39813        6.74494
H         -3.11928       -5.72873        6.52807
H         -5.92867       -6.81972        5.87535
H         -5.48060       -5.77244        7.20982
H         -5.40719       -5.14875        5.56774
H         -3.97532       -8.87763        5.01278
H         -5.12460       -7.80268        4.18515
H         -2.76747       -9.25199        2.91269
H         -4.47147       -9.43394        2.58842
H         -3.66498       -7.95699        2.08302
H         -1.32162       -6.42183        5.48194
H         -1.75655       -8.12370        5.57295
H         -1.29621       -7.05939        2.76405
H          0.09161       -7.16730        3.84144
H         -0.84355       -8.60057        3.50463
