 xtb: 6.7.1 (edcfbbe)
          12202407063D

 18 18  0     0  0            999 V2000
   -2.1554    0.0076    0.1302 C   0  0  0  0  0  0  0  0  0  0  0  0
   -0.7495    0.0197   -0.2903 N   0  0  0  0  0  0  0  0  0  0  0  0
    0.0469    1.1540    0.2395 C   0  0  0  0  0  0  0  0  0  0  0  0
    1.4749    0.7664   -0.1207 C   0  0  0  0  0  0  0  0  0  0  0  0
    1.4992   -0.7624    0.0558 C   0  0  0  0  0  0  0  0  0  0  0  0
    0.0233   -1.1827    0.1212 C   0  0  0  0  0  0  0  0  0  0  0  0
   -2.6660   -0.8608   -0.2825 H   0  0  0  0  0  0  0  0  0  0  0  0
   -2.2135   -0.0333    1.2169 H   0  0  0  0  0  0  0  0  0  0  0  0
   -2.6592    0.9092   -0.2141 H   0  0  0  0  0  0  0  0  0  0  0  0
   -0.7143    0.0761   -1.3136 H   0  0  0  0  0  0  0  0  0  0  0  0
   -0.2748    2.0994   -0.1950 H   0  0  0  0  0  0  0  0  0  0  0  0
   -0.0904    1.1900    1.3219 H   0  0  0  0  0  0  0  0  0  0  0  0
    1.6952    1.0414   -1.1522 H   0  0  0  0  0  0  0  0  0  0  0  0
    2.1999    1.2654    0.5162 H   0  0  0  0  0  0  0  0  0  0  0  0
    2.0179   -1.2424   -0.7705 H   0  0  0  0  0  0  0  0  0  0  0  0
    2.0128   -1.0443    0.9716 H   0  0  0  0  0  0  0  0  0  0  0  0
   -0.2677   -1.4365    1.1417 H   0  0  0  0  0  0  0  0  0  0  0  0
   -0.2107   -2.0269   -0.5260 H   0  0  0  0  0  0  0  0  0  0  0  0
  1  2  1  0  0  0  0
  2  3  1  0  0  0  0
  3  4  1  0  0  0  0
  4  5  1  0  0  0  0
  2  6  1  0  0  0  0
  5  6  1  0  0  0  0
  1  7  1  0  0  0  0
  1  8  1  0  0  0  0
  1  9  1  0  0  0  0
  2 10  1  0  0  0  0
  3 11  1  0  0  0  0
  3 12  1  0  0  0  0
  4 13  1  0  0  0  0
  4 14  1  0  0  0  0
  5 15  1  0  0  0  0
  5 16  1  0  0  0  0
  6 17  1  0  0  0  0
  6 18  1  0  0  0  0
M  CHG  1   1   1
M  END
