33

O          1.09452        0.07348       -0.32334
C          2.29089        0.06257       -0.03223
C          2.93950        1.17119        0.78924
C          2.31642        2.53702        0.48519
C          2.93367        3.62965        1.35550
C          2.82197        3.29247        2.83999
C          3.41967        1.92402        3.15576
C          2.82280        0.82788        2.27724
C          3.16541       -1.09476       -0.43172
N          2.71974       -2.47023       -0.10722
C          3.49876       -3.49493       -0.53866
C          3.17837       -4.81462       -0.24693
C          2.03791       -5.08968        0.49148
C          1.23970       -4.03889        0.91951
C          1.59799       -2.72975        0.60956
H          3.99940        1.21973        0.50739
H          2.45889        2.78495       -0.57359
H          1.23251        2.50963        0.65510
H          2.43742        4.58584        1.15565
H          3.99032        3.75593        1.08857
H          1.76624        3.30606        3.13750
H          3.33064        4.06150        3.43219
H          3.25045        1.68286        4.21131
H          4.50584        1.95746        3.00621
H          1.76765        0.68214        2.54441
H          3.32635       -0.12351        2.48741
H          3.29255       -1.05103       -1.52001
H          4.15044       -0.99067        0.03720
H          4.38662       -3.24532       -1.11435
H          3.81561       -5.62575       -0.59343
H          1.76969       -6.11809        0.73026
H          0.33701       -4.23654        1.49484
H          0.97795       -1.90471        0.94672
