 xtb: 6.7.1 (edcfbbe)
          12202407063D

 53 52  0     0  0            999 V2000
    0.4259    0.9691   -0.1984 C   0  0  0  0  0  0  0  0  0  0  0  0
    0.1854   -0.4941   -0.5499 C   0  0  0  0  0  0  0  0  0  0  0  0
    0.8945   -1.4652    0.3952 C   0  0  0  0  0  0  0  0  0  0  0  0
    0.4381   -1.3948    1.8542 C   0  0  0  0  0  0  0  0  0  0  0  0
   -1.0502   -1.6691    2.0807 C   0  0  0  0  0  0  0  0  0  0  0  0
   -1.5422   -3.0209    1.5595 C   0  0  0  0  0  0  0  0  0  0  0  0
   -0.8216   -4.2383    2.1421 C   0  0  0  0  0  0  0  0  0  0  0  0
   -0.9188   -4.3837    3.6629 C   0  0  0  0  0  0  0  0  0  0  0  0
   -2.3455   -4.5556    4.1994 C   0  0  0  0  0  0  0  0  0  0  0  0
   -3.0439   -5.8420    3.7351 C   0  0  0  0  0  0  0  0  0  0  0  0
   -3.1517   -6.9446    4.7359 N   0  0  0  0  0  0  0  0  0  0  0  0
   -3.8776   -6.4954    5.9732 C   0  0  0  0  0  0  0  0  0  0  0  0
   -5.1423   -5.6816    5.7446 C   0  0  0  0  0  0  0  0  0  0  0  0
   -3.9320   -8.0967    4.1617 C   0  0  0  0  0  0  0  0  0  0  0  0
   -3.8206   -8.3617    2.6659 C   0  0  0  0  0  0  0  0  0  0  0  0
   -1.7990   -7.3951    5.1928 C   0  0  0  0  0  0  0  0  0  0  0  0
   -0.9335   -8.1126    4.1697 C   0  0  0  0  0  0  0  0  0  0  0  0
   -0.0240    1.2248    0.7577 H   0  0  0  0  0  0  0  0  0  0  0  0
   -0.0090    1.6140   -0.9581 H   0  0  0  0  0  0  0  0  0  0  0  0
    1.4922    1.1763   -0.1445 H   0  0  0  0  0  0  0  0  0  0  0  0
   -0.8874   -0.6955   -0.5584 H   0  0  0  0  0  0  0  0  0  0  0  0
    0.5565   -0.6777   -1.5609 H   0  0  0  0  0  0  0  0  0  0  0  0
    0.7598   -2.4819    0.0188 H   0  0  0  0  0  0  0  0  0  0  0  0
    1.9658   -1.2527    0.3692 H   0  0  0  0  0  0  0  0  0  0  0  0
    1.0330   -2.1047    2.4340 H   0  0  0  0  0  0  0  0  0  0  0  0
    0.6607   -0.4020    2.2477 H   0  0  0  0  0  0  0  0  0  0  0  0
   -1.2559   -1.5893    3.1511 H   0  0  0  0  0  0  0  0  0  0  0  0
   -1.6338   -0.8892    1.5897 H   0  0  0  0  0  0  0  0  0  0  0  0
   -2.6154   -3.0988    1.7526 H   0  0  0  0  0  0  0  0  0  0  0  0
   -1.4165   -3.0477    0.4766 H   0  0  0  0  0  0  0  0  0  0  0  0
   -1.2139   -5.1329    1.6496 H   0  0  0  0  0  0  0  0  0  0  0  0
    0.2355   -4.1779    1.8829 H   0  0  0  0  0  0  0  0  0  0  0  0
   -0.2924   -5.2235    3.9704 H   0  0  0  0  0  0  0  0  0  0  0  0
   -0.4985   -3.4896    4.1232 H   0  0  0  0  0  0  0  0  0  0  0  0
   -2.3189   -4.4860    5.2864 H   0  0  0  0  0  0  0  0  0  0  0  0
   -2.9349   -3.7069    3.8521 H   0  0  0  0  0  0  0  0  0  0  0  0
   -4.0594   -5.6170    3.4114 H   0  0  0  0  0  0  0  0  0  0  0  0
   -2.5024   -6.2355    2.8772 H   0  0  0  0  0  0  0  0  0  0  0  0
   -4.1217   -7.3965    6.5404 H   0  0  0  0  0  0  0  0  0  0  0  0
   -3.1896   -5.9041    6.5785 H   0  0  0  0  0  0  0  0  0  0  0  0
   -5.8568   -6.1793    5.0944 H   0  0  0  0  0  0  0  0  0  0  0  0
   -5.6248   -5.5437    6.7092 H   0  0  0  0  0  0  0  0  0  0  0  0
   -4.9261   -4.6962    5.3437 H   0  0  0  0  0  0  0  0  0  0  0  0
   -3.6273   -8.9882    4.7128 H   0  0  0  0  0  0  0  0  0  0  0  0
   -4.9854   -7.9170    4.3782 H   0  0  0  0  0  0  0  0  0  0  0  0
   -2.8019   -8.5098    2.3262 H   0  0  0  0  0  0  0  0  0  0  0  0
   -4.3687   -9.2791    2.4627 H   0  0  0  0  0  0  0  0  0  0  0  0
   -4.2804   -7.5752    2.0749 H   0  0  0  0  0  0  0  0  0  0  0  0
   -1.2693   -6.5098    5.5461 H   0  0  0  0  0  0  0  0  0  0  0  0
   -1.9505   -8.0596    6.0469 H   0  0  0  0  0  0  0  0  0  0  0  0
   -0.7609   -7.5175    3.2779 H   0  0  0  0  0  0  0  0  0  0  0  0
    0.0349   -8.2930    4.6309 H   0  0  0  0  0  0  0  0  0  0  0  0
   -1.3412   -9.0787    3.8891 H   0  0  0  0  0  0  0  0  0  0  0  0
  1  2  1  0  0  0  0
  2  3  1  0  0  0  0
  3  4  1  0  0  0  0
  4  5  1  0  0  0  0
  5  6  1  0  0  0  0
  6  7  1  0  0  0  0
  7  8  1  0  0  0  0
  8  9  1  0  0  0  0
  9 10  1  0  0  0  0
 10 11  1  0  0  0  0
 11 12  1  0  0  0  0
 12 13  1  0  0  0  0
 11 14  1  0  0  0  0
 14 15  1  0  0  0  0
 11 16  1  0  0  0  0
 16 17  1  0  0  0  0
  1 18  1  0  0  0  0
  1 19  1  0  0  0  0
  1 20  1  0  0  0  0
  2 21  1  0  0  0  0
  2 22  1  0  0  0  0
  3 23  1  0  0  0  0
  3 24  1  0  0  0  0
  4 25  1  0  0  0  0
  4 26  1  0  0  0  0
  5 27  1  0  0  0  0
  5 28  1  0  0  0  0
  6 29  1  0  0  0  0
  6 30  1  0  0  0  0
  7 31  1  0  0  0  0
  7 32  1  0  0  0  0
  8 33  1  0  0  0  0
  8 34  1  0  0  0  0
  9 35  1  0  0  0  0
  9 36  1  0  0  0  0
 10 37  1  0  0  0  0
 10 38  1  0  0  0  0
 12 39  1  0  0  0  0
 12 40  1  0  0  0  0
 13 41  1  0  0  0  0
 13 42  1  0  0  0  0
 13 43  1  0  0  0  0
 14 44  1  0  0  0  0
 14 45  1  0  0  0  0
 15 46  1  0  0  0  0
 15 47  1  0  0  0  0
 15 48  1  0  0  0  0
 16 49  1  0  0  0  0
 16 50  1  0  0  0  0
 17 51  1  0  0  0  0
 17 52  1  0  0  0  0
 17 53  1  0  0  0  0
M  CHG  1   1   1
M  END
