 xtb: 6.7.1 (edcfbbe)
          12202407063D

 30 29  0     0  0            999 V2000
   -0.0565    1.0786   -0.8015 C   0  0  0  0  0  0  0  0  0  0  0  0
    1.4608    1.0420   -0.8479 C   0  0  0  0  0  0  0  0  0  0  0  0
    1.9271    0.3115   -2.0040 O   0  0  0  0  0  0  0  0  0  0  0  0
    2.0056   -0.9920   -1.9202 C   0  0  0  0  0  0  0  0  0  0  0  0
    1.7411   -1.6757   -0.9688 O   0  0  0  0  0  0  0  0  0  0  0  0
    2.5334   -1.5451   -3.2616 C   0  0  0  0  0  0  0  0  0  0  0  0
    2.4671   -3.0181   -3.4015 N   0  0  0  0  0  0  0  0  0  0  0  0
    1.0732   -3.5290   -3.1677 C   0  0  0  0  0  0  0  0  0  0  0  0
    0.0348   -2.8507   -4.0117 C   0  0  0  0  0  0  0  0  0  0  0  0
   -0.5680   -3.4367   -5.0308 C   0  0  0  0  0  0  0  0  0  0  0  0
    2.8866   -3.3747   -4.7698 C   0  0  0  0  0  0  0  0  0  0  0  0
    3.3789   -3.6593   -2.4334 C   0  0  0  0  0  0  0  0  0  0  0  0
   -0.4553    1.4953   -1.7225 H   0  0  0  0  0  0  0  0  0  0  0  0
   -0.3703    1.7036    0.0283 H   0  0  0  0  0  0  0  0  0  0  0  0
   -0.4602    0.0801   -0.6534 H   0  0  0  0  0  0  0  0  0  0  0  0
    1.8791    2.0408   -0.9718 H   0  0  0  0  0  0  0  0  0  0  0  0
    1.8658    0.5709    0.0513 H   0  0  0  0  0  0  0  0  0  0  0  0
    1.9651   -1.0729   -4.0654 H   0  0  0  0  0  0  0  0  0  0  0  0
    3.5739   -1.2219   -3.3549 H   0  0  0  0  0  0  0  0  0  0  0  0
    1.0803   -4.5995   -3.3804 H   0  0  0  0  0  0  0  0  0  0  0  0
    0.8412   -3.3804   -2.1109 H   0  0  0  0  0  0  0  0  0  0  0  0
   -0.2498   -1.8526   -3.7100 H   0  0  0  0  0  0  0  0  0  0  0  0
   -1.3393   -2.9391   -5.5911 H   0  0  0  0  0  0  0  0  0  0  0  0
   -0.3337   -4.4433   -5.3374 H   0  0  0  0  0  0  0  0  0  0  0  0
    3.8742   -2.9697   -4.9815 H   0  0  0  0  0  0  0  0  0  0  0  0
    2.9247   -4.4572   -4.8749 H   0  0  0  0  0  0  0  0  0  0  0  0
    2.1757   -2.9790   -5.4933 H   0  0  0  0  0  0  0  0  0  0  0  0
    4.4048   -3.3488   -2.6233 H   0  0  0  0  0  0  0  0  0  0  0  0
    3.1009   -3.3767   -1.4195 H   0  0  0  0  0  0  0  0  0  0  0  0
    3.3175   -4.7417   -2.5263 H   0  0  0  0  0  0  0  0  0  0  0  0
  1  2  1  0  0  0  0
  2  3  1  0  0  0  0
  3  4  4  0  0  0  0
  4  5  2  0  0  0  0
  4  6  1  0  0  0  0
  6  7  1  0  0  0  0
  7  8  1  0  0  0  0
  8  9  1  0  0  0  0
  9 10  2  0  0  0  0
  7 11  1  0  0  0  0
  7 12  1  0  0  0  0
  1 13  1  0  0  0  0
  1 14  1  0  0  0  0
  1 15  1  0  0  0  0
  2 16  1  0  0  0  0
  2 17  1  0  0  0  0
  6 18  1  0  0  0  0
  6 19  1  0  0  0  0
  8 20  1  0  0  0  0
  8 21  1  0  0  0  0
  9 22  1  0  0  0  0
 10 23  1  0  0  0  0
 10 24  1  0  0  0  0
 11 25  1  0  0  0  0
 11 26  1  0  0  0  0
 11 27  1  0  0  0  0
 12 28  1  0  0  0  0
 12 29  1  0  0  0  0
 12 30  1  0  0  0  0
M  CHG  1   1   1
M  END
