 xtb: 6.7.1 (edcfbbe)
          12202407063D

 23 22  0     0  0            999 V2000
    0.9284   -0.0469    0.0183 C   0  0  0  0  0  0  0  0  0  0  0  0
    0.4494   -0.3636    1.4241 C   0  0  0  0  0  0  0  0  0  0  0  0
    0.6897    0.8069    2.3612 N   0  0  0  0  0  0  0  0  0  0  0  0
    0.4026    2.2255    1.9355 C   0  0  0  0  0  0  0  0  0  0  0  0
   -1.0885    2.5117    1.9468 C   0  0  0  0  0  0  0  0  0  0  0  0
    1.1461    3.1407    2.8993 C   0  0  0  0  0  0  0  0  0  0  0  0
   -1.0039   -0.8054    1.4581 C   0  0  0  0  0  0  0  0  0  0  0  0
    0.2748    0.6639   -0.4793 H   0  0  0  0  0  0  0  0  0  0  0  0
    0.9201   -0.9618   -0.5675 H   0  0  0  0  0  0  0  0  0  0  0  0
    1.9471    0.3333    0.0176 H   0  0  0  0  0  0  0  0  0  0  0  0
    1.0627   -1.1744    1.8327 H   0  0  0  0  0  0  0  0  0  0  0  0
    0.1494    0.6326    3.2182 H   0  0  0  0  0  0  0  0  0  0  0  0
    1.6828    0.7908    2.6181 H   0  0  0  0  0  0  0  0  0  0  0  0
    0.8066    2.3534    0.9295 H   0  0  0  0  0  0  0  0  0  0  0  0
   -1.5303    2.2623    2.9092 H   0  0  0  0  0  0  0  0  0  0  0  0
   -1.2465    3.5730    1.7768 H   0  0  0  0  0  0  0  0  0  0  0  0
   -1.6164    1.9775    1.1642 H   0  0  0  0  0  0  0  0  0  0  0  0
    2.2156    2.9390    2.9026 H   0  0  0  0  0  0  0  0  0  0  0  0
    1.0133    4.1750    2.5963 H   0  0  0  0  0  0  0  0  0  0  0  0
    0.7625    3.0420    3.9125 H   0  0  0  0  0  0  0  0  0  0  0  0
   -1.0875   -1.7698    0.9645 H   0  0  0  0  0  0  0  0  0  0  0  0
   -1.3608   -0.9290    2.4781 H   0  0  0  0  0  0  0  0  0  0  0  0
   -1.6562   -0.1148    0.9343 H   0  0  0  0  0  0  0  0  0  0  0  0
  1  2  1  0  0  0  0
  2  3  1  0  0  0  0
  3  4  1  0  0  0  0
  4  5  1  0  0  0  0
  4  6  1  0  0  0  0
  2  7  1  0  0  0  0
  1  8  1  0  0  0  0
  1  9  1  0  0  0  0
  1 10  1  0  0  0  0
  2 11  1  0  0  0  0
  3 12  1  0  0  0  0
  3 13  1  0  0  0  0
  4 14  1  0  0  0  0
  5 15  1  0  0  0  0
  5 16  1  0  0  0  0
  5 17  1  0  0  0  0
  6 18  1  0  0  0  0
  6 19  1  0  0  0  0
  6 20  1  0  0  0  0
  7 21  1  0  0  0  0
  7 22  1  0  0  0  0
  7 23  1  0  0  0  0
M  CHG  1   1   1
M  END
