 xtb: 6.7.1 (edcfbbe)
          12202407063D

 59 58  0     0  0            999 V2000
    1.9030   -0.8014    0.2759 C   0  0  0  0  0  0  0  0  0  0  0  0
    1.4056   -1.1774    1.6664 C   0  0  0  0  0  0  0  0  0  0  0  0
    1.6290   -0.0782    2.7062 C   0  0  0  0  0  0  0  0  0  0  0  0
    0.9086    1.2408    2.4180 C   0  0  0  0  0  0  0  0  0  0  0  0
   -0.6113    1.1321    2.2811 C   0  0  0  0  0  0  0  0  0  0  0  0
   -1.3320    0.5640    3.5051 C   0  0  0  0  0  0  0  0  0  0  0  0
   -1.1280    1.3524    4.8006 C   0  0  0  0  0  0  0  0  0  0  0  0
   -1.5455    2.8230    4.7332 C   0  0  0  0  0  0  0  0  0  0  0  0
   -3.0071    3.0588    4.3479 C   0  0  0  0  0  0  0  0  0  0  0  0
   -4.0379    2.4141    5.2783 C   0  0  0  0  0  0  0  0  0  0  0  0
   -3.9130    2.8003    6.7581 C   0  0  0  0  0  0  0  0  0  0  0  0
   -3.9668    4.3011    7.0663 C   0  0  0  0  0  0  0  0  0  0  0  0
   -5.2999    4.8806    7.4252 N   0  0  0  0  0  0  0  0  0  0  0  0
   -5.7879    4.3823    8.7497 C   0  0  0  0  0  0  0  0  0  0  0  0
   -4.9993    4.8268    9.9884 C   0  0  0  0  0  0  0  0  0  0  0  0
   -5.6396    5.9831   10.7659 C   0  0  0  0  0  0  0  0  0  0  0  0
   -6.9294    5.5776   11.4699 C   0  0  0  0  0  0  0  0  0  0  0  0
   -5.1715    6.3499    7.4443 C   0  0  0  0  0  0  0  0  0  0  0  0
   -6.3062    4.5282    6.4065 C   0  0  0  0  0  0  0  0  0  0  0  0
    1.3266    0.0211   -0.1401 H   0  0  0  0  0  0  0  0  0  0  0  0
    1.8122   -1.6504   -0.3975 H   0  0  0  0  0  0  0  0  0  0  0  0
    2.9491   -0.5055    0.3131 H   0  0  0  0  0  0  0  0  0  0  0  0
    0.3459   -1.4345    1.6168 H   0  0  0  0  0  0  0  0  0  0  0  0
    1.9392   -2.0702    2.0009 H   0  0  0  0  0  0  0  0  0  0  0  0
    1.3210   -0.4546    3.6843 H   0  0  0  0  0  0  0  0  0  0  0  0
    2.7000    0.1311    2.7646 H   0  0  0  0  0  0  0  0  0  0  0  0
    1.1529    1.9448    3.2171 H   0  0  0  0  0  0  0  0  0  0  0  0
    1.3012    1.6646    1.4921 H   0  0  0  0  0  0  0  0  0  0  0  0
   -1.0064    2.1250    2.0526 H   0  0  0  0  0  0  0  0  0  0  0  0
   -0.8470    0.4953    1.4270 H   0  0  0  0  0  0  0  0  0  0  0  0
   -2.3993    0.5042    3.2779 H   0  0  0  0  0  0  0  0  0  0  0  0
   -0.9885   -0.4571    3.6775 H   0  0  0  0  0  0  0  0  0  0  0  0
   -1.6795    0.8488    5.5987 H   0  0  0  0  0  0  0  0  0  0  0  0
   -0.0727    1.3173    5.0749 H   0  0  0  0  0  0  0  0  0  0  0  0
   -1.3374    3.2884    5.7006 H   0  0  0  0  0  0  0  0  0  0  0  0
   -0.9213    3.3329    3.9984 H   0  0  0  0  0  0  0  0  0  0  0  0
   -3.1776    4.1378    4.2807 H   0  0  0  0  0  0  0  0  0  0  0  0
   -3.1758    2.6601    3.3476 H   0  0  0  0  0  0  0  0  0  0  0  0
   -5.0338    2.6416    4.8951 H   0  0  0  0  0  0  0  0  0  0  0  0
   -3.9216    1.3315    5.2234 H   0  0  0  0  0  0  0  0  0  0  0  0
   -4.6640    2.2533    7.3293 H   0  0  0  0  0  0  0  0  0  0  0  0
   -2.9448    2.4413    7.1083 H   0  0  0  0  0  0  0  0  0  0  0  0
   -3.2965    4.5168    7.8986 H   0  0  0  0  0  0  0  0  0  0  0  0
   -3.5988    4.8476    6.1971 H   0  0  0  0  0  0  0  0  0  0  0  0
   -6.8221    4.7138    8.8566 H   0  0  0  0  0  0  0  0  0  0  0  0
   -5.7954    3.2937    8.6941 H   0  0  0  0  0  0  0  0  0  0  0  0
   -4.9345    3.9736   10.6655 H   0  0  0  0  0  0  0  0  0  0  0  0
   -3.9741    5.0909    9.7295 H   0  0  0  0  0  0  0  0  0  0  0  0
   -4.9247    6.3113   11.5214 H   0  0  0  0  0  0  0  0  0  0  0  0
   -5.8334    6.8352   10.1132 H   0  0  0  0  0  0  0  0  0  0  0  0
   -6.7486    4.7494   12.1499 H   0  0  0  0  0  0  0  0  0  0  0  0
   -7.3120    6.4127   12.0491 H   0  0  0  0  0  0  0  0  0  0  0  0
   -7.7042    5.2790   10.7670 H   0  0  0  0  0  0  0  0  0  0  0  0
   -4.9227    6.7152    6.4492 H   0  0  0  0  0  0  0  0  0  0  0  0
   -6.1135    6.7998    7.7522 H   0  0  0  0  0  0  0  0  0  0  0  0
   -4.3895    6.6601    8.1328 H   0  0  0  0  0  0  0  0  0  0  0  0
   -5.9446    4.8043    5.4180 H   0  0  0  0  0  0  0  0  0  0  0  0
   -6.5114    3.4609    6.4252 H   0  0  0  0  0  0  0  0  0  0  0  0
   -7.2355    5.0624    6.5986 H   0  0  0  0  0  0  0  0  0  0  0  0
  1  2  1  0  0  0  0
  2  3  1  0  0  0  0
  3  4  1  0  0  0  0
  4  5  1  0  0  0  0
  5  6  1  0  0  0  0
  6  7  1  0  0  0  0
  7  8  1  0  0  0  0
  8  9  1  0  0  0  0
  9 10  1  0  0  0  0
 10 11  1  0  0  0  0
 11 12  1  0  0  0  0
 12 13  1  0  0  0  0
 13 14  1  0  0  0  0
 14 15  1  0  0  0  0
 15 16  1  0  0  0  0
 16 17  1  0  0  0  0
 13 18  1  0  0  0  0
 13 19  1  0  0  0  0
  1 20  1  0  0  0  0
  1 21  1  0  0  0  0
  1 22  1  0  0  0  0
  2 23  1  0  0  0  0
  2 24  1  0  0  0  0
  3 25  1  0  0  0  0
  3 26  1  0  0  0  0
  4 27  1  0  0  0  0
  4 28  1  0  0  0  0
  5 29  1  0  0  0  0
  5 30  1  0  0  0  0
  6 31  1  0  0  0  0
  6 32  1  0  0  0  0
  7 33  1  0  0  0  0
  7 34  1  0  0  0  0
  8 35  1  0  0  0  0
  8 36  1  0  0  0  0
  9 37  1  0  0  0  0
  9 38  1  0  0  0  0
 10 39  1  0  0  0  0
 10 40  1  0  0  0  0
 11 41  1  0  0  0  0
 11 42  1  0  0  0  0
 12 43  1  0  0  0  0
 12 44  1  0  0  0  0
 14 45  1  0  0  0  0
 14 46  1  0  0  0  0
 15 47  1  0  0  0  0
 15 48  1  0  0  0  0
 16 49  1  0  0  0  0
 16 50  1  0  0  0  0
 17 51  1  0  0  0  0
 17 52  1  0  0  0  0
 17 53  1  0  0  0  0
 18 54  1  0  0  0  0
 18 55  1  0  0  0  0
 18 56  1  0  0  0  0
 19 57  1  0  0  0  0
 19 58  1  0  0  0  0
 19 59  1  0  0  0  0
M  CHG  1   1   1
M  END
