59

C          1.23761       -0.45259       -0.40366
C          1.29054       -0.90808        1.04674
C          1.66147        0.20920        2.02617
C          0.71037        1.41078        2.04945
C         -0.75162        1.08303        2.36796
C         -0.99652        0.46977        3.75136
C         -0.63207        1.36469        4.94327
C         -1.30704        2.74247        4.96941
C         -2.83788        2.72075        4.90554
C         -3.52956        2.11811        6.13301
C         -3.40106        2.91649        7.43863
C         -3.79618        4.39871        7.41452
N         -5.30330        4.71717        7.53411
C         -5.97339        4.14796        8.80258
C         -5.34973        4.54343       10.14539
C         -5.73599        5.90144       10.74211
C         -7.23483        6.11992       10.88093
C         -5.44804        6.24337        7.47095
C         -6.08512        4.17353        6.33101
H          0.42946        0.26561       -0.57043
H          1.05834       -1.30982       -1.06062
H          2.18193        0.01224       -0.70405
H          0.33107       -1.35768        1.32446
H          2.03950       -1.70460        1.13322
H          1.73540       -0.21775        3.03314
H          2.66706        0.57298        1.77954
H          1.08909        2.14091        2.77432
H          0.74779        1.91723        1.07745
H         -1.34283        2.00000        2.26277
H         -1.14604        0.39787        1.60865
H         -2.05440        0.19018        3.82313
H         -0.44244       -0.47205        3.83932
H         -0.87463        0.82567        5.86685
H          0.45460        1.51108        4.96478
H         -0.98126        3.27683        5.86939
H         -0.93468        3.33561        4.12560
H         -3.19581        3.74147        4.73729
H         -3.15976        2.16219        4.01956
H         -4.58338        1.96571        5.89109
H         -3.13721        1.10946        6.31078
H         -3.93333        2.38349        8.23247
H         -2.34454        2.87617        7.73523
H         -3.31186        4.90455        8.25723
H         -3.43532        4.90057        6.51159
H         -7.03305        4.41978        8.75406
H         -5.92920        3.05726        8.70524
H         -5.67297        3.78462       10.87196
H         -4.25942        4.46073       10.11864
H         -5.28965        5.96518       11.74278
H         -5.29982        6.72548       10.17440
H         -7.70622        5.29285       11.42073
H         -7.42857        7.04197       11.43879
H         -7.71963        6.22111        9.90594
H         -5.20196        6.56980        6.45510
H         -6.48010        6.50954        7.71385
H         -4.74267        6.69543        8.16966
H         -5.53776        4.41601        5.41647
H         -6.21341        3.09646        6.44909
H         -7.07217        4.64731        6.31921
