44

C          0.90583       -0.35120       -0.16707
C          0.56813       -1.58271        0.65164
O          1.06771       -1.41396        1.99196
C          2.30116       -1.92085        2.25120
O          2.98838       -2.53471        1.44638
C          2.74733       -1.65255        3.69064
N          2.40844       -0.25986        4.33605
C          0.84583       -0.11321        4.56761
C          0.05512       -1.35489        5.00066
C          0.28200       -1.85293        6.41665
C          3.07828       -0.07745        5.72213
C          4.57252       -0.39412        5.81058
C          5.30286        0.67107        6.62254
C          2.75414        0.94043        3.39400
C          4.20475        1.20278        2.98880
C          4.80576        0.26393        1.95674
H          0.51386        0.55062        0.31545
H          0.48446       -0.42356       -1.17346
H          1.98959       -0.22204       -0.24831
H         -0.51855       -1.69074        0.72746
H          0.95513       -2.49379        0.18276
H          2.35105       -2.42911        4.34939
H          3.83216       -1.75134        3.71270
H          0.71386        0.69898        5.29330
H          0.41855        0.24472        3.62459
H         -1.00599       -1.07785        4.93342
H          0.17187       -2.18420        4.29744
H          0.27933       -1.02783        7.13531
H         -0.52092       -2.54249        6.69973
H          1.22074       -2.40575        6.50416
H          2.86075        0.95044        6.03474
H          2.56352       -0.74257        6.41489
H          4.70296       -1.35937        6.31564
H          5.06539       -0.49677        4.84482
H          4.91074        0.72611        7.64292
H          6.37179        0.44434        6.67745
H          5.19237        1.65939        6.16319
H          2.14410        0.83375        2.49174
H          2.39031        1.83082        3.92341
H          4.20917        2.19890        2.52411
H          4.86805        1.30955        3.84628
H          4.12571        0.11430        1.11332
H          5.73102        0.69503        1.55902
H          5.07073       -0.70602        2.37867
