19

C          1.27693        0.14002       -0.16879
C          0.41862       -0.31069       -1.33361
N          0.84426       -1.66303       -1.76369
C          1.77651       -1.79324       -2.73825
C          2.18688       -3.05169       -3.16222
C          1.63151       -4.18185       -2.57619
C          0.67964       -4.03230       -1.58051
C          0.29278       -2.75792       -1.18332
O          0.16696       -5.16911       -1.03589
H          1.17609       -0.54143        0.68206
H          0.97996        1.14113        0.15776
H          2.33519        0.16951       -0.44734
H         -0.64021       -0.35948       -1.05819
H          0.51515        0.36700       -2.18843
H          2.18878       -0.88474       -3.16891
H          2.93586       -3.15384       -3.94462
H          1.94049       -5.17658       -2.89426
H         -0.44629       -2.58990       -0.40754
H         -0.49089       -4.99241       -0.34148
