27

C          0.87526        0.32531       -0.30646
C          0.38496       -0.45242       -1.51901
C          0.85506       -1.90420       -1.52430
O          0.24743       -2.62288       -0.43148
C          1.04753       -2.93287        0.62242
O          2.23868       -2.67070        0.70735
C          0.29622       -3.65020        1.71266
N         -1.17484       -3.66256        1.54646
C         -1.80413       -4.80615        1.18625
C         -3.18674       -4.83836        1.04330
C         -3.92266       -3.68193        1.26424
C         -3.26434       -2.51471        1.62674
C         -1.88195       -2.52741        1.76807
H          0.46236       -0.08007        0.62210
H          0.56351        1.37215       -0.37938
H          1.96750        0.30078       -0.23958
H         -0.71080       -0.42181       -1.52950
H          0.74029        0.04356       -2.42908
H          0.51544       -2.39052       -2.44500
H          1.94880       -1.96829       -1.51248
H          0.64833       -4.68522        1.76187
H          0.49388       -3.15852        2.67141
H         -1.19847       -5.69259        1.01817
H         -3.68948       -5.76113        0.76026
H         -5.00650       -3.69014        1.15305
H         -3.82684       -1.59911        1.79811
H         -1.33145       -1.63366        2.04962
