 xtb: 6.7.1 (edcfbbe)
          12202407063D

 38 37  0     0  0            999 V2000
    1.3498    0.3679   -0.6790 C   0  0  0  0  0  0  0  0  0  0  0  0
    0.8456   -0.1986    0.6428 C   0  0  0  0  0  0  0  0  0  0  0  0
    1.1136    0.7180    1.8393 C   0  0  0  0  0  0  0  0  0  0  0  0
    0.4422    2.0914    1.7626 C   0  0  0  0  0  0  0  0  0  0  0  0
   -1.0912    2.0417    1.7788 C   0  0  0  0  0  0  0  0  0  0  0  0
   -1.8394    2.1504    3.4372 P   0  0  0  0  0  0  0  0  0  0  0  0
   -1.3264    3.6920    4.2758 C   0  0  0  0  0  0  0  0  0  0  0  0
   -1.4063    4.9215    3.3767 C   0  0  0  0  0  0  0  0  0  0  0  0
   -3.6634    2.1872    3.2728 C   0  0  0  0  0  0  0  0  0  0  0  0
   -4.2126    1.3689    2.1073 C   0  0  0  0  0  0  0  0  0  0  0  0
   -1.3523    0.7878    4.5531 C   0  0  0  0  0  0  0  0  0  0  0  0
   -1.8093   -0.5884    4.0814 C   0  0  0  0  0  0  0  0  0  0  0  0
    0.7781    1.2402   -0.9864 H   0  0  0  0  0  0  0  0  0  0  0  0
    1.2592   -0.3806   -1.4611 H   0  0  0  0  0  0  0  0  0  0  0  0
    2.3968    0.6488   -0.5985 H   0  0  0  0  0  0  0  0  0  0  0  0
   -0.2207   -0.4234    0.5564 H   0  0  0  0  0  0  0  0  0  0  0  0
    1.3539   -1.1450    0.8345 H   0  0  0  0  0  0  0  0  0  0  0  0
    0.8067    0.2036    2.7520 H   0  0  0  0  0  0  0  0  0  0  0  0
    2.1907    0.8821    1.9057 H   0  0  0  0  0  0  0  0  0  0  0  0
    0.8063    2.7056    2.5900 H   0  0  0  0  0  0  0  0  0  0  0  0
    0.7615    2.5771    0.8406 H   0  0  0  0  0  0  0  0  0  0  0  0
   -1.5104    2.8864    1.2223 H   0  0  0  0  0  0  0  0  0  0  0  0
   -1.4506    1.1272    1.3027 H   0  0  0  0  0  0  0  0  0  0  0  0
   -1.9837    3.8083    5.1434 H   0  0  0  0  0  0  0  0  0  0  0  0
   -0.3080    3.5551    4.6495 H   0  0  0  0  0  0  0  0  0  0  0  0
   -2.3991    5.0404    2.9483 H   0  0  0  0  0  0  0  0  0  0  0  0
   -1.1879    5.8125    3.9598 H   0  0  0  0  0  0  0  0  0  0  0  0
   -0.6822    4.8673    2.5678 H   0  0  0  0  0  0  0  0  0  0  0  0
   -4.0716    1.8265    4.2219 H   0  0  0  0  0  0  0  0  0  0  0  0
   -3.9606    3.2338    3.1624 H   0  0  0  0  0  0  0  0  0  0  0  0
   -3.8922    0.3313    2.1544 H   0  0  0  0  0  0  0  0  0  0  0  0
   -5.2993    1.3844    2.1402 H   0  0  0  0  0  0  0  0  0  0  0  0
   -3.9046    1.7865    1.1522 H   0  0  0  0  0  0  0  0  0  0  0  0
   -0.2641    0.8219    4.6558 H   0  0  0  0  0  0  0  0  0  0  0  0
   -1.7847    1.0184    5.5321 H   0  0  0  0  0  0  0  0  0  0  0  0
   -1.4267   -0.8162    3.0890 H   0  0  0  0  0  0  0  0  0  0  0  0
   -1.4375   -1.3480    4.7648 H   0  0  0  0  0  0  0  0  0  0  0  0
   -2.8940   -0.6591    4.0664 H   0  0  0  0  0  0  0  0  0  0  0  0
  1  2  1  0  0  0  0
  2  3  1  0  0  0  0
  3  4  1  0  0  0  0
  4  5  1  0  0  0  0
  5  6  1  0  0  0  0
  6  7  1  0  0  0  0
  7  8  1  0  0  0  0
  6  9  1  0  0  0  0
  9 10  1  0  0  0  0
  6 11  1  0  0  0  0
 11 12  1  0  0  0  0
  1 13  1  0  0  0  0
  1 14  1  0  0  0  0
  1 15  1  0  0  0  0
  2 16  1  0  0  0  0
  2 17  1  0  0  0  0
  3 18  1  0  0  0  0
  3 19  1  0  0  0  0
  4 20  1  0  0  0  0
  4 21  1  0  0  0  0
  5 22  1  0  0  0  0
  5 23  1  0  0  0  0
  7 24  1  0  0  0  0
  7 25  1  0  0  0  0
  8 26  1  0  0  0  0
  8 27  1  0  0  0  0
  8 28  1  0  0  0  0
  9 29  1  0  0  0  0
  9 30  1  0  0  0  0
 10 31  1  0  0  0  0
 10 32  1  0  0  0  0
 10 33  1  0  0  0  0
 11 34  1  0  0  0  0
 11 35  1  0  0  0  0
 12 36  1  0  0  0  0
 12 37  1  0  0  0  0
 12 38  1  0  0  0  0
M  CHG  1   1   1
M  END
