 xtb: 6.7.1 (edcfbbe)
          12202407063D

 27 27  0     0  0            999 V2000
    0.9258    0.3060   -0.3492 C   0  0  0  0  0  0  0  0  0  0  0  0
    0.2499   -0.4874   -1.4610 C   0  0  0  0  0  0  0  0  0  0  0  0
    0.6800   -1.9498   -1.4768 C   0  0  0  0  0  0  0  0  0  0  0  0
    0.1751   -2.6307   -0.3065 O   0  0  0  0  0  0  0  0  0  0  0  0
    1.0333   -2.9669    0.6360 C   0  0  0  0  0  0  0  0  0  0  0  0
    2.2160   -2.8372    0.6398 O   0  0  0  0  0  0  0  0  0  0  0  0
    0.2831   -3.6175    1.8404 C   0  0  0  0  0  0  0  0  0  0  0  0
   -1.1417   -3.6477    1.6397 N   0  0  0  0  0  0  0  0  0  0  0  0
   -1.7228   -4.7324    1.1121 C   0  0  0  0  0  0  0  0  0  0  0  0
   -3.0734   -4.7533    0.8328 C   0  0  0  0  0  0  0  0  0  0  0  0
   -3.8404   -3.6253    1.0951 C   0  0  0  0  0  0  0  0  0  0  0  0
   -3.2174   -2.5074    1.6365 C   0  0  0  0  0  0  0  0  0  0  0  0
   -1.8643   -2.5488    1.8964 C   0  0  0  0  0  0  0  0  0  0  0  0
    0.6689   -0.0902    0.6319 H   0  0  0  0  0  0  0  0  0  0  0  0
    0.6103    1.3445   -0.3871 H   0  0  0  0  0  0  0  0  0  0  0  0
    2.0066    0.2714   -0.4582 H   0  0  0  0  0  0  0  0  0  0  0  0
   -0.8360   -0.4359   -1.3559 H   0  0  0  0  0  0  0  0  0  0  0  0
    0.5154   -0.0594   -2.4274 H   0  0  0  0  0  0  0  0  0  0  0  0
    0.2499   -2.4771   -2.3304 H   0  0  0  0  0  0  0  0  0  0  0  0
    1.7689   -2.0381   -1.4916 H   0  0  0  0  0  0  0  0  0  0  0  0
    0.6847   -4.6255    1.9650 H   0  0  0  0  0  0  0  0  0  0  0  0
    0.5423   -3.0356    2.7285 H   0  0  0  0  0  0  0  0  0  0  0  0
   -1.0937   -5.5886    0.9173 H   0  0  0  0  0  0  0  0  0  0  0  0
   -3.5165   -5.6425    0.4136 H   0  0  0  0  0  0  0  0  0  0  0  0
   -4.8979   -3.6170    0.8825 H   0  0  0  0  0  0  0  0  0  0  0  0
   -3.7750   -1.6109    1.8558 H   0  0  0  0  0  0  0  0  0  0  0  0
   -1.3442   -1.7005    2.3165 H   0  0  0  0  0  0  0  0  0  0  0  0
  1  2  1  0  0  0  0
  2  3  1  0  0  0  0
  3  4  1  0  0  0  0
  4  5  1  0  0  0  0
  5  6  2  0  0  0  0
  5  7  1  0  0  0  0
  7  8  1  0  0  0  0
  8  9  4  0  0  0  0
  9 10  4  0  0  0  0
 10 11  4  0  0  0  0
 11 12  4  0  0  0  0
  8 13  4  0  0  0  0
 12 13  4  0  0  0  0
  1 14  1  0  0  0  0
  1 15  1  0  0  0  0
  1 16  1  0  0  0  0
  2 17  1  0  0  0  0
  2 18  1  0  0  0  0
  3 19  1  0  0  0  0
  3 20  1  0  0  0  0
  7 21  1  0  0  0  0
  7 22  1  0  0  0  0
  9 23  1  0  0  0  0
 10 24  1  0  0  0  0
 11 25  1  0  0  0  0
 12 26  1  0  0  0  0
 13 27  1  0  0  0  0
M  CHG  1   1   1
M  END
