29

C          1.06515       -0.03633        0.00836
C          0.28560       -0.40967       -1.01640
C         -1.20831       -0.28617       -1.04194
N         -1.75817        0.82688       -1.93892
C         -1.28572        0.68207       -3.39486
C         -1.67608       -0.59585       -4.07261
C         -2.59372       -0.69521       -5.04484
C         -3.29861        0.79651       -1.92214
C         -3.93488        1.11709       -0.60252
C         -4.58477        2.25619       -0.32462
C         -1.27313        2.18581       -1.43211
H          0.66723        0.41190        0.91492
H          2.14236       -0.18783       -0.02855
H          0.76124       -0.88703       -1.87092
H         -1.64969       -1.23272       -1.37465
H         -1.58196       -0.09647       -0.02872
H         -1.68676        1.54632       -3.94060
H         -0.19419        0.78231       -3.40571
H         -1.13579       -1.49673       -3.78799
H         -2.80216       -1.65423       -5.51593
H         -3.15118        0.16033       -5.41680
H         -3.63668        1.50454       -2.68954
H         -3.61466       -0.20689       -2.22931
H         -3.91196        0.34340        0.16267
H         -5.05322        2.40569        0.64650
H         -4.68901        3.06329       -1.04480
H         -1.48035        2.26602       -0.36129
H         -0.19673        2.26767       -1.60955
H         -1.79743        2.97012       -1.98700
