 xtb: 6.7.1 (edcfbbe)
          12202407063D

 29 28  0     0  0            999 V2000
    1.0169   -0.0313   -0.1269 C   0  0  0  0  0  0  0  0  0  0  0  0
    0.2030   -0.4097   -1.0962 C   0  0  0  0  0  0  0  0  0  0  0  0
   -1.2835   -0.2021   -1.0484 C   0  0  0  0  0  0  0  0  0  0  0  0
   -1.7722    0.8855   -1.9554 N   0  0  0  0  0  0  0  0  0  0  0  0
   -1.2762    0.6893   -3.3549 C   0  0  0  0  0  0  0  0  0  0  0  0
   -1.6613   -0.6299   -3.9585 C   0  0  0  0  0  0  0  0  0  0  0  0
   -2.5225   -0.7460   -4.9535 C   0  0  0  0  0  0  0  0  0  0  0  0
   -3.2694    0.8953   -1.9810 C   0  0  0  0  0  0  0  0  0  0  0  0
   -3.9094    1.0316   -0.6303 C   0  0  0  0  0  0  0  0  0  0  0  0
   -4.5257    2.1301   -0.2320 C   0  0  0  0  0  0  0  0  0  0  0  0
   -1.2824    2.1817   -1.4578 C   0  0  0  0  0  0  0  0  0  0  0  0
    0.6650    0.4731    0.7584 H   0  0  0  0  0  0  0  0  0  0  0  0
    2.0738   -0.2254   -0.1725 H   0  0  0  0  0  0  0  0  0  0  0  0
    0.5920   -0.9393   -1.9537 H   0  0  0  0  0  0  0  0  0  0  0  0
   -1.7952   -1.1248   -1.3297 H   0  0  0  0  0  0  0  0  0  0  0  0
   -1.5745    0.0677   -0.0321 H   0  0  0  0  0  0  0  0  0  0  0  0
   -1.6825    1.4986   -3.9654 H   0  0  0  0  0  0  0  0  0  0  0  0
   -0.1881    0.7843   -3.3342 H   0  0  0  0  0  0  0  0  0  0  0  0
   -1.1586   -1.5045   -3.5716 H   0  0  0  0  0  0  0  0  0  0  0  0
   -2.7507   -1.7012   -5.3919 H   0  0  0  0  0  0  0  0  0  0  0  0
   -3.0240    0.1056   -5.3841 H   0  0  0  0  0  0  0  0  0  0  0  0
   -3.5792    1.7300   -2.6138 H   0  0  0  0  0  0  0  0  0  0  0  0
   -3.5936   -0.0370   -2.4513 H   0  0  0  0  0  0  0  0  0  0  0  0
   -3.8953    0.1550    0.0010 H   0  0  0  0  0  0  0  0  0  0  0  0
   -5.0121    2.1873    0.7255 H   0  0  0  0  0  0  0  0  0  0  0  0
   -4.5869    3.0122   -0.8485 H   0  0  0  0  0  0  0  0  0  0  0  0
   -1.7247    2.3920   -0.4854 H   0  0  0  0  0  0  0  0  0  0  0  0
   -0.1986    2.1548   -1.3592 H   0  0  0  0  0  0  0  0  0  0  0  0
   -1.5578    2.9781   -2.1463 H   0  0  0  0  0  0  0  0  0  0  0  0
  1  2  2  0  0  0  0
  2  3  1  0  0  0  0
  3  4  1  0  0  0  0
  4  5  1  0  0  0  0
  5  6  1  0  0  0  0
  6  7  2  0  0  0  0
  4  8  1  0  0  0  0
  8  9  1  0  0  0  0
  9 10  2  0  0  0  0
  4 11  1  0  0  0  0
  1 12  1  0  0  0  0
  1 13  1  0  0  0  0
  2 14  1  0  0  0  0
  3 15  1  0  0  0  0
  3 16  1  0  0  0  0
  5 17  1  0  0  0  0
  5 18  1  0  0  0  0
  6 19  1  0  0  0  0
  7 20  1  0  0  0  0
  7 21  1  0  0  0  0
  8 22  1  0  0  0  0
  8 23  1  0  0  0  0
  9 24  1  0  0  0  0
 10 25  1  0  0  0  0
 10 26  1  0  0  0  0
 11 27  1  0  0  0  0
 11 28  1  0  0  0  0
 11 29  1  0  0  0  0
M  CHG  1   1   1
M  END
