 xtb: 6.7.1 (edcfbbe)
          12202407063D

 21 20  0     0  0            999 V2000
    1.0040    0.2102   -0.0107 C   0  0  0  0  0  0  0  0  0  0  0  0
    0.2825    0.9518   -0.8309 C   0  0  0  0  0  0  0  0  0  0  0  0
   -1.2190    0.9928   -0.8064 C   0  0  0  0  0  0  0  0  0  0  0  0
   -1.7988    2.5571   -0.0652 P   0  0  0  0  0  0  0  0  0  0  0  0
   -1.1758    3.9627   -1.0163 C   0  0  0  0  0  0  0  0  0  0  0  0
   -3.6077    2.5946   -0.0584 C   0  0  0  0  0  0  0  0  0  0  0  0
   -1.1872    2.6704    1.6312 C   0  0  0  0  0  0  0  0  0  0  0  0
    0.5529   -0.4245    0.7350 H   0  0  0  0  0  0  0  0  0  0  0  0
    2.0779    0.1903   -0.0664 H   0  0  0  0  0  0  0  0  0  0  0  0
    0.7591    1.5622   -1.5853 H   0  0  0  0  0  0  0  0  0  0  0  0
   -1.6284    0.9271   -1.8189 H   0  0  0  0  0  0  0  0  0  0  0  0
   -1.6219    0.1703   -0.2089 H   0  0  0  0  0  0  0  0  0  0  0  0
   -1.4859    3.8730   -2.0570 H   0  0  0  0  0  0  0  0  0  0  0  0
   -1.5756    4.8882   -0.6029 H   0  0  0  0  0  0  0  0  0  0  0  0
   -0.0882    3.9898   -0.9645 H   0  0  0  0  0  0  0  0  0  0  0  0
   -3.9931    1.7433    0.5017 H   0  0  0  0  0  0  0  0  0  0  0  0
   -3.9519    3.5158    0.4106 H   0  0  0  0  0  0  0  0  0  0  0  0
   -3.9847    2.5510   -1.0796 H   0  0  0  0  0  0  0  0  0  0  0  0
   -1.6263    1.8771    2.2348 H   0  0  0  0  0  0  0  0  0  0  0  0
   -0.1030    2.5623    1.6325 H   0  0  0  0  0  0  0  0  0  0  0  0
   -1.4555    3.6359    2.0577 H   0  0  0  0  0  0  0  0  0  0  0  0
  1  2  2  0  0  0  0
  2  3  1  0  0  0  0
  3  4  1  0  0  0  0
  4  5  1  0  0  0  0
  4  6  1  0  0  0  0
  4  7  1  0  0  0  0
  1  8  1  0  0  0  0
  1  9  1  0  0  0  0
  2 10  1  0  0  0  0
  3 11  1  0  0  0  0
  3 12  1  0  0  0  0
  5 13  1  0  0  0  0
  5 14  1  0  0  0  0
  5 15  1  0  0  0  0
  6 16  1  0  0  0  0
  6 17  1  0  0  0  0
  6 18  1  0  0  0  0
  7 19  1  0  0  0  0
  7 20  1  0  0  0  0
  7 21  1  0  0  0  0
M  CHG  1   1   1
M  END
