 xtb: 6.7.1 (edcfbbe)
          12202407063D

 77 76  0     0  0            999 V2000
    0.8468   -0.8395    0.4062 C   0  0  0  0  0  0  0  0  0  0  0  0
    0.9533    0.5844    0.9396 C   0  0  0  0  0  0  0  0  0  0  0  0
    1.4516    1.5854   -0.1041 C   0  0  0  0  0  0  0  0  0  0  0  0
    0.5586    1.7302   -1.3382 C   0  0  0  0  0  0  0  0  0  0  0  0
   -0.8784    2.1664   -1.0480 C   0  0  0  0  0  0  0  0  0  0  0  0
   -1.0149    3.5380   -0.3839 C   0  0  0  0  0  0  0  0  0  0  0  0
   -0.4724    4.7118   -1.2031 C   0  0  0  0  0  0  0  0  0  0  0  0
   -1.0578    4.8449   -2.6110 C   0  0  0  0  0  0  0  0  0  0  0  0
   -2.5828    4.9463   -2.6677 C   0  0  0  0  0  0  0  0  0  0  0  0
   -3.1663    6.2044   -2.0221 C   0  0  0  0  0  0  0  0  0  0  0  0
   -2.8208    7.5157   -2.7324 C   0  0  0  0  0  0  0  0  0  0  0  0
   -3.2095    7.5760   -4.2127 C   0  0  0  0  0  0  0  0  0  0  0  0
   -4.6699    7.2315   -4.5135 C   0  0  0  0  0  0  0  0  0  0  0  0
   -5.6822    8.2312   -3.9468 C   0  0  0  0  0  0  0  0  0  0  0  0
   -5.8004    9.5174   -4.7748 C   0  0  0  0  0  0  0  0  0  0  0  0
   -6.4526    9.3155   -6.1509 C   0  0  0  0  0  0  0  0  0  0  0  0
   -7.8785    9.7478   -6.2910 N   0  0  0  0  0  0  0  0  0  0  0  0
   -8.0706   11.1879   -5.9214 C   0  0  0  0  0  0  0  0  0  0  0  0
   -7.0545   12.2122   -6.4414 C   0  0  0  0  0  0  0  0  0  0  0  0
   -7.2055   12.5382   -7.8164 O   0  0  0  0  0  0  0  0  0  0  0  0
   -6.2796   12.0741   -8.6896 C   0  0  0  0  0  0  0  0  0  0  0  0
   -5.4424   11.2739   -8.3646 O   0  0  0  0  0  0  0  0  0  0  0  0
   -6.4684   12.6629  -10.0457 C   0  0  0  0  0  0  0  0  0  0  0  0
   -8.3515    9.5800   -7.7144 C   0  0  0  0  0  0  0  0  0  0  0  0
   -7.6874    8.5013   -8.5586 C   0  0  0  0  0  0  0  0  0  0  0  0
   -8.7606    8.9695   -5.3618 C   0  0  0  0  0  0  0  0  0  0  0  0
   -8.9286    7.4902   -5.6708 C   0  0  0  0  0  0  0  0  0  0  0  0
    0.0787   -0.9161   -0.3593 H   0  0  0  0  0  0  0  0  0  0  0  0
    0.5899   -1.5248    1.2109 H   0  0  0  0  0  0  0  0  0  0  0  0
    1.7946   -1.1566   -0.0234 H   0  0  0  0  0  0  0  0  0  0  0  0
   -0.0170    0.9017    1.3260 H   0  0  0  0  0  0  0  0  0  0  0  0
    1.6537    0.5943    1.7784 H   0  0  0  0  0  0  0  0  0  0  0  0
    1.5684    2.5599    0.3746 H   0  0  0  0  0  0  0  0  0  0  0  0
    2.4427    1.2706   -0.4411 H   0  0  0  0  0  0  0  0  0  0  0  0
    1.0249    2.4500   -2.0144 H   0  0  0  0  0  0  0  0  0  0  0  0
    0.5243    0.7748   -1.8657 H   0  0  0  0  0  0  0  0  0  0  0  0
   -1.4328    2.1639   -1.9891 H   0  0  0  0  0  0  0  0  0  0  0  0
   -1.3523    1.4264   -0.4003 H   0  0  0  0  0  0  0  0  0  0  0  0
   -2.0718    3.7094   -0.1656 H   0  0  0  0  0  0  0  0  0  0  0  0
   -0.4936    3.5248    0.5750 H   0  0  0  0  0  0  0  0  0  0  0  0
   -0.6580    5.6319   -0.6438 H   0  0  0  0  0  0  0  0  0  0  0  0
    0.6106    4.6125   -1.2973 H   0  0  0  0  0  0  0  0  0  0  0  0
   -0.6170    5.7249   -3.0849 H   0  0  0  0  0  0  0  0  0  0  0  0
   -0.7539    3.9798   -3.2034 H   0  0  0  0  0  0  0  0  0  0  0  0
   -2.8917    4.8968   -3.7142 H   0  0  0  0  0  0  0  0  0  0  0  0
   -3.0145    4.0772   -2.1690 H   0  0  0  0  0  0  0  0  0  0  0  0
   -4.2529    6.0973   -1.9717 H   0  0  0  0  0  0  0  0  0  0  0  0
   -2.8102    6.2744   -0.9934 H   0  0  0  0  0  0  0  0  0  0  0  0
   -3.3028    8.3336   -2.1907 H   0  0  0  0  0  0  0  0  0  0  0  0
   -1.7456    7.6869   -2.6649 H   0  0  0  0  0  0  0  0  0  0  0  0
   -2.9828    8.5771   -4.5875 H   0  0  0  0  0  0  0  0  0  0  0  0
   -2.5805    6.8804   -4.7695 H   0  0  0  0  0  0  0  0  0  0  0  0
   -4.7842    7.1581   -5.5982 H   0  0  0  0  0  0  0  0  0  0  0  0
   -4.8880    6.2461   -4.1026 H   0  0  0  0  0  0  0  0  0  0  0  0
   -6.6549    7.7441   -3.8612 H   0  0  0  0  0  0  0  0  0  0  0  0
   -5.3743    8.5032   -2.9375 H   0  0  0  0  0  0  0  0  0  0  0  0
   -6.3239   10.2722   -4.1886 H   0  0  0  0  0  0  0  0  0  0  0  0
   -4.7914    9.8978   -4.9378 H   0  0  0  0  0  0  0  0  0  0  0  0
   -5.8821    9.8453   -6.9148 H   0  0  0  0  0  0  0  0  0  0  0  0
   -6.4171    8.2558   -6.3946 H   0  0  0  0  0  0  0  0  0  0  0  0
   -9.0637   11.4860   -6.2668 H   0  0  0  0  0  0  0  0  0  0  0  0
   -8.0585   11.2660   -4.8335 H   0  0  0  0  0  0  0  0  0  0  0  0
   -7.2457   13.1440   -5.9006 H   0  0  0  0  0  0  0  0  0  0  0  0
   -6.0234   11.8999   -6.2552 H   0  0  0  0  0  0  0  0  0  0  0  0
   -7.4753   13.0519  -10.1607 H   0  0  0  0  0  0  0  0  0  0  0  0
   -5.7624   13.4849  -10.1602 H   0  0  0  0  0  0  0  0  0  0  0  0
   -6.2410   11.9235  -10.8089 H   0  0  0  0  0  0  0  0  0  0  0  0
   -9.4274    9.4003   -7.6690 H   0  0  0  0  0  0  0  0  0  0  0  0
   -8.2020   10.5282   -8.2270 H   0  0  0  0  0  0  0  0  0  0  0  0
   -7.7518    7.5105   -8.1222 H   0  0  0  0  0  0  0  0  0  0  0  0
   -8.2112    8.4737   -9.5118 H   0  0  0  0  0  0  0  0  0  0  0  0
   -6.6474    8.7348   -8.7671 H   0  0  0  0  0  0  0  0  0  0  0  0
   -8.3469    9.0785   -4.3586 H   0  0  0  0  0  0  0  0  0  0  0  0
   -9.7461    9.4413   -5.3743 H   0  0  0  0  0  0  0  0  0  0  0  0
   -7.9839    6.9546   -5.6755 H   0  0  0  0  0  0  0  0  0  0  0  0
   -9.5417    7.0594   -4.8823 H   0  0  0  0  0  0  0  0  0  0  0  0
   -9.4439    7.3190   -6.6106 H   0  0  0  0  0  0  0  0  0  0  0  0
  1  2  1  0  0  0  0
  2  3  1  0  0  0  0
  3  4  1  0  0  0  0
  4  5  1  0  0  0  0
  5  6  1  0  0  0  0
  6  7  1  0  0  0  0
  7  8  1  0  0  0  0
  8  9  1  0  0  0  0
  9 10  1  0  0  0  0
 10 11  1  0  0  0  0
 11 12  1  0  0  0  0
 12 13  1  0  0  0  0
 13 14  1  0  0  0  0
 14 15  1  0  0  0  0
 15 16  1  0  0  0  0
 16 17  1  0  0  0  0
 17 18  1  0  0  0  0
 18 19  1  0  0  0  0
 19 20  1  0  0  0  0
 20 21  1  0  0  0  0
 21 22  2  0  0  0  0
 21 23  1  0  0  0  0
 17 24  1  0  0  0  0
 24 25  1  0  0  0  0
 17 26  1  0  0  0  0
 26 27  1  0  0  0  0
  1 28  1  0  0  0  0
  1 29  1  0  0  0  0
  1 30  1  0  0  0  0
  2 31  1  0  0  0  0
  2 32  1  0  0  0  0
  3 33  1  0  0  0  0
  3 34  1  0  0  0  0
  4 35  1  0  0  0  0
  4 36  1  0  0  0  0
  5 37  1  0  0  0  0
  5 38  1  0  0  0  0
  6 39  1  0  0  0  0
  6 40  1  0  0  0  0
  7 41  1  0  0  0  0
  7 42  1  0  0  0  0
  8 43  1  0  0  0  0
  8 44  1  0  0  0  0
  9 45  1  0  0  0  0
  9 46  1  0  0  0  0
 10 47  1  0  0  0  0
 10 48  1  0  0  0  0
 11 49  1  0  0  0  0
 11 50  1  0  0  0  0
 12 51  1  0  0  0  0
 12 52  1  0  0  0  0
 13 53  1  0  0  0  0
 13 54  1  0  0  0  0
 14 55  1  0  0  0  0
 14 56  1  0  0  0  0
 15 57  1  0  0  0  0
 15 58  1  0  0  0  0
 16 59  1  0  0  0  0
 16 60  1  0  0  0  0
 18 61  1  0  0  0  0
 18 62  1  0  0  0  0
 19 63  1  0  0  0  0
 19 64  1  0  0  0  0
 23 65  1  0  0  0  0
 23 66  1  0  0  0  0
 23 67  1  0  0  0  0
 24 68  1  0  0  0  0
 24 69  1  0  0  0  0
 25 70  1  0  0  0  0
 25 71  1  0  0  0  0
 25 72  1  0  0  0  0
 26 73  1  0  0  0  0
 26 74  1  0  0  0  0
 27 75  1  0  0  0  0
 27 76  1  0  0  0  0
 27 77  1  0  0  0  0
M  CHG  1   1   1
M  END
