 xtb: 6.7.1 (edcfbbe)
          12202407063D

 32 31  0     0  0            999 V2000
    0.6375    0.3824   -0.3594 C   0  0  0  0  0  0  0  0  0  0  0  0
    0.5482   -1.0071   -0.9788 C   0  0  0  0  0  0  0  0  0  0  0  0
    1.2121   -2.0907   -0.1255 C   0  0  0  0  0  0  0  0  0  0  0  0
    0.5947   -2.2850    1.2614 C   0  0  0  0  0  0  0  0  0  0  0  0
   -0.8986   -2.6319    1.2716 C   0  0  0  0  0  0  0  0  0  0  0  0
   -1.3736   -3.8011    0.4032 C   0  0  0  0  0  0  0  0  0  0  0  0
   -1.1644   -5.2002    0.9013 N   0  0  0  0  0  0  0  0  0  0  0  0
   -1.6764   -5.3607    2.2741 C   0  0  0  0  0  0  0  0  0  0  0  0
   -1.9152   -6.1069    0.0087 C   0  0  0  0  0  0  0  0  0  0  0  0
    0.2563   -5.5872    0.8631 C   0  0  0  0  0  0  0  0  0  0  0  0
    0.0512    0.4537    0.5534 H   0  0  0  0  0  0  0  0  0  0  0  0
    0.2605    1.1250   -1.0572 H   0  0  0  0  0  0  0  0  0  0  0  0
    1.6704    0.6289   -0.1270 H   0  0  0  0  0  0  0  0  0  0  0  0
   -0.4987   -1.2556   -1.1679 H   0  0  0  0  0  0  0  0  0  0  0  0
    1.0541   -0.9905   -1.9460 H   0  0  0  0  0  0  0  0  0  0  0  0
    1.2072   -3.0329   -0.6802 H   0  0  0  0  0  0  0  0  0  0  0  0
    2.2590   -1.8182    0.0181 H   0  0  0  0  0  0  0  0  0  0  0  0
    1.1795   -3.0291    1.8055 H   0  0  0  0  0  0  0  0  0  0  0  0
    0.7021   -1.3533    1.8175 H   0  0  0  0  0  0  0  0  0  0  0  0
   -1.2284   -2.7566    2.3029 H   0  0  0  0  0  0  0  0  0  0  0  0
   -1.4328   -1.7620    0.8852 H   0  0  0  0  0  0  0  0  0  0  0  0
   -2.4514   -3.6876    0.2661 H   0  0  0  0  0  0  0  0  0  0  0  0
   -0.9008   -3.7303   -0.5773 H   0  0  0  0  0  0  0  0  0  0  0  0
   -2.6974   -4.9889    2.3410 H   0  0  0  0  0  0  0  0  0  0  0  0
   -1.6693   -6.4136    2.5512 H   0  0  0  0  0  0  0  0  0  0  0  0
   -1.0536   -4.8175    2.9809 H   0  0  0  0  0  0  0  0  0  0  0  0
   -1.5894   -5.9780   -1.0221 H   0  0  0  0  0  0  0  0  0  0  0  0
   -1.7476   -7.1429    0.2981 H   0  0  0  0  0  0  0  0  0  0  0  0
   -2.9825   -5.9004    0.0656 H   0  0  0  0  0  0  0  0  0  0  0  0
    0.6490   -5.4829   -0.1464 H   0  0  0  0  0  0  0  0  0  0  0  0
    0.8391   -4.9600    1.5314 H   0  0  0  0  0  0  0  0  0  0  0  0
    0.3681   -6.6244    1.1749 H   0  0  0  0  0  0  0  0  0  0  0  0
  1  2  1  0  0  0  0
  2  3  1  0  0  0  0
  3  4  1  0  0  0  0
  4  5  1  0  0  0  0
  5  6  1  0  0  0  0
  6  7  1  0  0  0  0
  7  8  1  0  0  0  0
  7  9  1  0  0  0  0
  7 10  1  0  0  0  0
  1 11  1  0  0  0  0
  1 12  1  0  0  0  0
  1 13  1  0  0  0  0
  2 14  1  0  0  0  0
  2 15  1  0  0  0  0
  3 16  1  0  0  0  0
  3 17  1  0  0  0  0
  4 18  1  0  0  0  0
  4 19  1  0  0  0  0
  5 20  1  0  0  0  0
  5 21  1  0  0  0  0
  6 22  1  0  0  0  0
  6 23  1  0  0  0  0
  8 24  1  0  0  0  0
  8 25  1  0  0  0  0
  8 26  1  0  0  0  0
  9 27  1  0  0  0  0
  9 28  1  0  0  0  0
  9 29  1  0  0  0  0
 10 30  1  0  0  0  0
 10 31  1  0  0  0  0
 10 32  1  0  0  0  0
M  CHG  1   1   1
M  END
