38

C          0.86843       -0.11008        0.04335
O          0.34428       -1.07339        0.95071
C          0.82021       -2.34519        0.79209
C         -0.10176       -3.36791        1.00827
C          0.28425       -4.70010        0.87873
C          1.60225       -5.01195        0.54677
C          2.54500       -3.99181        0.35580
C          2.14854       -2.65343        0.48880
C          3.93701       -4.38546       -0.01861
O          4.18590       -5.55983       -0.28878
C          5.01419       -3.32086       -0.14690
N          4.84852       -2.50806       -1.36611
C          4.50523       -2.98343       -2.62594
C          4.42292       -1.89445       -3.44588
N          4.75781       -0.78642       -2.67859
C          5.07089       -1.18779       -1.43633
C          4.79547        0.60884       -3.16002
C          3.78943        1.46474       -2.39660
C          6.20598        1.17837       -3.05940
H          0.21473        0.76687        0.06837
H          0.88405       -0.48926       -0.98480
H          1.86861        0.20975        0.35218
H         -1.13038       -3.12569        1.26844
H         -0.44266       -5.49445        1.03566
H          1.88525       -6.05936        0.44488
H          2.85513       -1.84421        0.37305
H          5.01886       -2.67685        0.73798
H          5.99408       -3.80836       -0.20211
H          4.34455       -4.03917       -2.77570
H          4.17117       -1.76461       -4.48490
H          5.40997       -0.55303       -0.62524
H          4.50374        0.60016       -4.21779
H          4.03406        1.51487       -1.33033
H          3.76690        2.48614       -2.78971
H          2.78278        1.04244       -2.48366
H          6.91505        0.54413       -3.60159
H          6.25124        2.18536       -3.48628
H          6.54184        1.23462       -2.01871
