 xtb: 6.7.1 (edcfbbe)
          12202407063D

 62 65  0     0  0            999 V2000
    1.2250    1.6528    2.7265 C   0  0  0  0  0  0  0  0  0  0  0  0
    0.1365    1.0805    1.8687 C   0  0  0  0  0  0  0  0  0  0  0  0
   -0.3291   -0.2074    2.1105 C   0  0  0  0  0  0  0  0  0  0  0  0
   -1.3404   -0.7641    1.3494 C   0  0  0  0  0  0  0  0  0  0  0  0
   -1.9163   -0.0312    0.3262 C   0  0  0  0  0  0  0  0  0  0  0  0
   -1.4679    1.2512    0.0720 C   0  0  0  0  0  0  0  0  0  0  0  0
   -0.4431    1.8099    0.8276 C   0  0  0  0  0  0  0  0  0  0  0  0
    0.0079    3.2238    0.5201 C   0  0  0  0  0  0  0  0  0  0  0  0
    0.0642    3.4782   -0.9022 N   0  0  0  0  0  0  0  0  0  0  0  0
   -0.7303    4.3469   -1.5905 C   0  0  0  0  0  0  0  0  0  0  0  0
   -0.3425    4.3011   -2.8893 C   0  0  0  0  0  0  0  0  0  0  0  0
    0.6854    3.4039   -2.9789 N   0  0  0  0  0  0  0  0  0  0  0  0
    0.9158    2.9036   -1.7601 C   0  0  0  0  0  0  0  0  0  0  0  0
    1.9011    1.8730   -1.3804 C   0  0  0  0  0  0  0  0  0  0  0  0
    1.4082    3.1639   -4.2096 C   0  0  0  0  0  0  0  0  0  0  0  0
    2.2071    4.3884   -4.6665 C   0  0  0  0  0  0  0  0  0  0  0  0
    3.6155    4.5519   -4.0467 C   0  0  0  0  0  0  0  0  0  0  0  0
    4.4931    3.4822   -4.6688 C   0  0  0  0  0  0  0  0  0  0  0  0
    4.6307    2.2149   -4.1125 C   0  0  0  0  0  0  0  0  0  0  0  0
    5.3694    1.2341   -4.7534 C   0  0  0  0  0  0  0  0  0  0  0  0
    5.9724    1.4973   -5.9698 C   0  0  0  0  0  0  0  0  0  0  0  0
    5.8202    2.7462   -6.5480 C   0  0  0  0  0  0  0  0  0  0  0  0
    5.0816    3.7245   -5.9077 C   0  0  0  0  0  0  0  0  0  0  0  0
    3.6273    4.6322   -2.5310 C   0  0  0  0  0  0  0  0  0  0  0  0
    2.6462    5.3689   -1.8701 C   0  0  0  0  0  0  0  0  0  0  0  0
    2.6602    5.5047   -0.4934 C   0  0  0  0  0  0  0  0  0  0  0  0
    3.6687    4.9229    0.2563 C   0  0  0  0  0  0  0  0  0  0  0  0
    4.6870    4.2463   -0.3931 C   0  0  0  0  0  0  0  0  0  0  0  0
    4.6755    4.1166   -1.7724 C   0  0  0  0  0  0  0  0  0  0  0  0
    4.0965    5.9855   -4.4197 C   0  0  0  0  0  0  0  0  0  0  0  0
    3.3280    6.8436   -4.7808 O   0  0  0  0  0  0  0  0  0  0  0  0
    5.4071    6.1989   -4.2134 N   0  0  0  0  0  0  0  0  0  0  0  0
    1.5162    0.9352    3.4878 H   0  0  0  0  0  0  0  0  0  0  0  0
    2.1111    1.8960    2.1390 H   0  0  0  0  0  0  0  0  0  0  0  0
    0.8872    2.5582    3.2283 H   0  0  0  0  0  0  0  0  0  0  0  0
    0.1095   -0.7804    2.9131 H   0  0  0  0  0  0  0  0  0  0  0  0
   -1.6834   -1.7648    1.5592 H   0  0  0  0  0  0  0  0  0  0  0  0
   -2.7140   -0.4506   -0.2661 H   0  0  0  0  0  0  0  0  0  0  0  0
   -1.9262    1.8275   -0.7198 H   0  0  0  0  0  0  0  0  0  0  0  0
   -0.6951    3.9389    0.9560 H   0  0  0  0  0  0  0  0  0  0  0  0
    0.9975    3.4143    0.9415 H   0  0  0  0  0  0  0  0  0  0  0  0
   -1.4977    4.9238   -1.1168 H   0  0  0  0  0  0  0  0  0  0  0  0
   -0.7171    4.8285   -3.7421 H   0  0  0  0  0  0  0  0  0  0  0  0
    2.8248    2.3396   -1.0319 H   0  0  0  0  0  0  0  0  0  0  0  0
    1.5003    1.2592   -0.5758 H   0  0  0  0  0  0  0  0  0  0  0  0
    2.1325    1.2267   -2.2225 H   0  0  0  0  0  0  0  0  0  0  0  0
    2.0710    2.3077   -4.0861 H   0  0  0  0  0  0  0  0  0  0  0  0
    0.6700    2.9211   -4.9786 H   0  0  0  0  0  0  0  0  0  0  0  0
    2.3510    4.3047   -5.7452 H   0  0  0  0  0  0  0  0  0  0  0  0
    1.6355    5.3020   -4.5023 H   0  0  0  0  0  0  0  0  0  0  0  0
    4.1762    1.9834   -3.1608 H   0  0  0  0  0  0  0  0  0  0  0  0
    5.4696    0.2604   -4.2977 H   0  0  0  0  0  0  0  0  0  0  0  0
    6.5496    0.7336   -6.4666 H   0  0  0  0  0  0  0  0  0  0  0  0
    6.2730    2.9595   -7.5037 H   0  0  0  0  0  0  0  0  0  0  0  0
    4.9557    4.6875   -6.3805 H   0  0  0  0  0  0  0  0  0  0  0  0
    1.8825    5.8806   -2.4344 H   0  0  0  0  0  0  0  0  0  0  0  0
    1.8918    6.0887   -0.0084 H   0  0  0  0  0  0  0  0  0  0  0  0
    3.6830    5.0288    1.3302 H   0  0  0  0  0  0  0  0  0  0  0  0
    5.5066    3.8299    0.1726 H   0  0  0  0  0  0  0  0  0  0  0  0
    5.5012    3.6148   -2.2530 H   0  0  0  0  0  0  0  0  0  0  0  0
    6.0379    5.4633   -3.9494 H   0  0  0  0  0  0  0  0  0  0  0  0
    5.7830    7.1127   -4.4081 H   0  0  0  0  0  0  0  0  0  0  0  0
  1  2  1  0  0  0  0
  2  3  4  0  0  0  0
  3  4  4  0  0  0  0
  4  5  4  0  0  0  0
  5  6  4  0  0  0  0
  2  7  4  0  0  0  0
  6  7  4  0  0  0  0
  7  8  1  0  0  0  0
  8  9  1  0  0  0  0
  9 10  4  0  0  0  0
 10 11  2  0  0  0  0
 11 12  4  0  0  0  0
  9 13  4  0  0  0  0
 12 13  4  0  0  0  0
 13 14  1  0  0  0  0
 12 15  1  0  0  0  0
 15 16  1  0  0  0  0
 16 17  1  0  0  0  0
 17 18  1  0  0  0  0
 18 19  4  0  0  0  0
 19 20  4  0  0  0  0
 20 21  4  0  0  0  0
 21 22  4  0  0  0  0
 18 23  4  0  0  0  0
 22 23  4  0  0  0  0
 17 24  1  0  0  0  0
 24 25  4  0  0  0  0
 25 26  4  0  0  0  0
 26 27  4  0  0  0  0
 27 28  4  0  0  0  0
 24 29  4  0  0  0  0
 28 29  4  0  0  0  0
 17 30  1  0  0  0  0
 30 31  2  0  0  0  0
 30 32  4  0  0  0  0
  1 33  1  0  0  0  0
  1 34  1  0  0  0  0
  1 35  1  0  0  0  0
  3 36  1  0  0  0  0
  4 37  1  0  0  0  0
  5 38  1  0  0  0  0
  6 39  1  0  0  0  0
  8 40  1  0  0  0  0
  8 41  1  0  0  0  0
 10 42  1  0  0  0  0
 11 43  1  0  0  0  0
 14 44  1  0  0  0  0
 14 45  1  0  0  0  0
 14 46  1  0  0  0  0
 15 47  1  0  0  0  0
 15 48  1  0  0  0  0
 16 49  1  0  0  0  0
 16 50  1  0  0  0  0
 19 51  1  0  0  0  0
 20 52  1  0  0  0  0
 21 53  1  0  0  0  0
 22 54  1  0  0  0  0
 23 55  1  0  0  0  0
 25 56  1  0  0  0  0
 26 57  1  0  0  0  0
 27 58  1  0  0  0  0
 28 59  1  0  0  0  0
 29 60  1  0  0  0  0
 32 61  1  0  0  0  0
 32 62  1  0  0  0  0
M  CHG  1   1   1
M  END
