 xtb: 6.7.1 (edcfbbe)
          12202407073D

108111  0     0  0            999 V2000
    2.0958    0.2108   -1.8031 C   0  0  0  0  0  0  0  0  0  0  0  0
    1.7308    1.2274   -0.7231 C   0  0  0  0  0  0  0  0  0  0  0  0
    1.8878    2.6775   -1.1862 C   0  0  0  0  0  0  0  0  0  0  0  0
    1.0295    3.0676   -2.3911 C   0  0  0  0  0  0  0  0  0  0  0  0
   -0.4697    2.9254   -2.1284 C   0  0  0  0  0  0  0  0  0  0  0  0
   -1.3361    3.6766   -3.1424 C   0  0  0  0  0  0  0  0  0  0  0  0
   -1.2049    3.1840   -4.5845 C   0  0  0  0  0  0  0  0  0  0  0  0
   -1.8121    1.7999   -4.8381 C   0  0  0  0  0  0  0  0  0  0  0  0
   -3.2546    1.8259   -4.9102 N   0  0  0  0  0  0  0  0  0  0  0  0
   -4.1600    1.5456   -3.9226 C   0  0  0  0  0  0  0  0  0  0  0  0
   -3.7727    1.2899   -2.6082 C   0  0  0  0  0  0  0  0  0  0  0  0
   -4.5345    1.1880   -1.4582 C   0  0  0  0  0  0  0  0  0  0  0  0
   -3.9784    0.7152   -0.2801 C   0  0  0  0  0  0  0  0  0  0  0  0
   -4.5710    0.3733    0.9323 C   0  0  0  0  0  0  0  0  0  0  0  0
   -5.8429    0.5835    1.3867 N   0  0  0  0  0  0  0  0  0  0  0  0
   -6.9439    1.1807    0.6706 C   0  0  0  0  0  0  0  0  0  0  0  0
   -7.5996    0.1833   -0.2950 C   0  0  0  0  0  0  0  0  0  0  0  0
   -8.5046   -0.8332    0.4043 C   0  0  0  0  0  0  0  0  0  0  0  0
   -9.8289   -0.2612    0.9149 C   0  0  0  0  0  0  0  0  0  0  0  0
  -10.7622    0.2815   -0.1704 C   0  0  0  0  0  0  0  0  0  0  0  0
  -11.1424   -0.7201   -1.2629 C   0  0  0  0  0  0  0  0  0  0  0  0
  -11.8215   -1.9942   -0.7580 C   0  0  0  0  0  0  0  0  0  0  0  0
  -13.1390   -1.7285   -0.0397 C   0  0  0  0  0  0  0  0  0  0  0  0
   -5.9636    0.0361    2.6451 C   0  0  0  0  0  0  0  0  0  0  0  0
   -4.7197   -0.5263    2.9754 C   0  0  0  0  0  0  0  0  0  0  0  0
   -3.8779   -0.2933    1.9132 N   0  0  0  0  0  0  0  0  0  0  0  0
   -2.5275   -0.7975    1.8692 C   0  0  0  0  0  0  0  0  0  0  0  0
   -2.4550   -2.2370    1.3404 C   0  0  0  0  0  0  0  0  0  0  0  0
   -2.6315   -2.3495   -0.1744 C   0  0  0  0  0  0  0  0  0  0  0  0
   -1.5254   -1.6944   -0.9587 C   0  0  0  0  0  0  0  0  0  0  0  0
   -1.6530   -1.2740   -2.0900 O   0  0  0  0  0  0  0  0  0  0  0  0
   -0.3784   -1.6156   -0.3093 O   0  0  0  0  0  0  0  0  0  0  0  0
   -4.5156   -1.1690    4.1846 C   0  0  0  0  0  0  0  0  0  0  0  0
   -5.5829   -1.2276    5.0690 C   0  0  0  0  0  0  0  0  0  0  0  0
   -6.8222   -0.6559    4.7463 C   0  0  0  0  0  0  0  0  0  0  0  0
   -7.0264   -0.0184    3.5315 C   0  0  0  0  0  0  0  0  0  0  0  0
   -8.1214   -0.7460    5.8682 Cl  0  0  0  0  0  0  0  0  0  0  0  0
   -5.3740   -2.0176    6.5808 Cl  0  0  0  0  0  0  0  0  0  0  0  0
   -5.4159    1.5741   -4.4710 N   0  0  0  0  0  0  0  0  0  0  0  0
   -5.3027    1.9304   -5.7993 C   0  0  0  0  0  0  0  0  0  0  0  0
   -3.9352    2.0940   -6.0737 C   0  0  0  0  0  0  0  0  0  0  0  0
   -3.4952    2.4588   -7.3351 C   0  0  0  0  0  0  0  0  0  0  0  0
   -4.4558    2.6598   -8.3159 C   0  0  0  0  0  0  0  0  0  0  0  0
   -3.9540    3.1169   -9.8951 Cl  0  0  0  0  0  0  0  0  0  0  0  0
   -5.8223    2.5041   -8.0388 C   0  0  0  0  0  0  0  0  0  0  0  0
   -6.2620    2.1367   -6.7749 C   0  0  0  0  0  0  0  0  0  0  0  0
   -6.9806    2.7725   -9.2802 Cl  0  0  0  0  0  0  0  0  0  0  0  0
   -6.6159    0.9594   -3.9507 C   0  0  0  0  0  0  0  0  0  0  0  0
   -6.9600   -0.3656   -4.6529 C   0  0  0  0  0  0  0  0  0  0  0  0
   -5.7405   -1.2630   -4.8763 C   0  0  0  0  0  0  0  0  0  0  0  0
   -4.8354   -1.3947   -3.6686 C   0  0  0  0  0  0  0  0  0  0  0  0
   -5.2037   -1.4421   -2.5192 O   0  0  0  0  0  0  0  0  0  0  0  0
   -3.5675   -1.4403   -4.0378 O   0  0  0  0  0  0  0  0  0  0  0  0
    1.3294    0.1489   -2.5739 H   0  0  0  0  0  0  0  0  0  0  0  0
    2.2480   -0.7786   -1.3715 H   0  0  0  0  0  0  0  0  0  0  0  0
    3.0291    0.4974   -2.2820 H   0  0  0  0  0  0  0  0  0  0  0  0
    0.7066    1.0652   -0.3773 H   0  0  0  0  0  0  0  0  0  0  0  0
    2.3882    1.0791    0.1360 H   0  0  0  0  0  0  0  0  0  0  0  0
    1.6422    3.3358   -0.3497 H   0  0  0  0  0  0  0  0  0  0  0  0
    2.9357    2.8488   -1.4405 H   0  0  0  0  0  0  0  0  0  0  0  0
    1.2474    4.1095   -2.6342 H   0  0  0  0  0  0  0  0  0  0  0  0
    1.3192    2.4615   -3.2499 H   0  0  0  0  0  0  0  0  0  0  0  0
   -0.7354    1.8673   -2.1169 H   0  0  0  0  0  0  0  0  0  0  0  0
   -0.6929    3.3285   -1.1377 H   0  0  0  0  0  0  0  0  0  0  0  0
   -2.3826    3.6162   -2.8341 H   0  0  0  0  0  0  0  0  0  0  0  0
   -1.0504    4.7299   -3.1193 H   0  0  0  0  0  0  0  0  0  0  0  0
   -1.6959    3.8994   -5.2473 H   0  0  0  0  0  0  0  0  0  0  0  0
   -0.1514    3.1514   -4.8602 H   0  0  0  0  0  0  0  0  0  0  0  0
   -1.4588    1.4210   -5.8003 H   0  0  0  0  0  0  0  0  0  0  0  0
   -1.5035    1.0881   -4.0730 H   0  0  0  0  0  0  0  0  0  0  0  0
   -2.7188    1.0987   -2.4840 H   0  0  0  0  0  0  0  0  0  0  0  0
   -5.5657    1.4851   -1.4787 H   0  0  0  0  0  0  0  0  0  0  0  0
   -2.9281    0.4762   -0.3445 H   0  0  0  0  0  0  0  0  0  0  0  0
   -7.6710    1.5189    1.4092 H   0  0  0  0  0  0  0  0  0  0  0  0
   -6.5786    2.0656    0.1450 H   0  0  0  0  0  0  0  0  0  0  0  0
   -8.1858    0.7408   -1.0259 H   0  0  0  0  0  0  0  0  0  0  0  0
   -6.8176   -0.3631   -0.8269 H   0  0  0  0  0  0  0  0  0  0  0  0
   -8.7182   -1.6372   -0.2999 H   0  0  0  0  0  0  0  0  0  0  0  0
   -7.9645   -1.2791    1.2426 H   0  0  0  0  0  0  0  0  0  0  0  0
  -10.3444   -1.0484    1.4659 H   0  0  0  0  0  0  0  0  0  0  0  0
   -9.6390    0.5487    1.6237 H   0  0  0  0  0  0  0  0  0  0  0  0
  -11.6719    0.6352    0.3165 H   0  0  0  0  0  0  0  0  0  0  0  0
  -10.3035    1.1519   -0.6466 H   0  0  0  0  0  0  0  0  0  0  0  0
  -11.8211   -0.2171   -1.9561 H   0  0  0  0  0  0  0  0  0  0  0  0
  -10.2504   -0.9979   -1.8300 H   0  0  0  0  0  0  0  0  0  0  0  0
  -12.0147   -2.6371   -1.6200 H   0  0  0  0  0  0  0  0  0  0  0  0
  -11.1476   -2.5382   -0.0937 H   0  0  0  0  0  0  0  0  0  0  0  0
  -13.8058   -1.1451   -0.6706 H   0  0  0  0  0  0  0  0  0  0  0  0
  -13.6312   -2.6678    0.1999 H   0  0  0  0  0  0  0  0  0  0  0  0
  -12.9803   -1.1862    0.8888 H   0  0  0  0  0  0  0  0  0  0  0  0
   -1.9021   -0.1333    1.2719 H   0  0  0  0  0  0  0  0  0  0  0  0
   -2.1444   -0.7741    2.8915 H   0  0  0  0  0  0  0  0  0  0  0  0
   -1.4848   -2.6506    1.6155 H   0  0  0  0  0  0  0  0  0  0  0  0
   -3.2289   -2.8294    1.8303 H   0  0  0  0  0  0  0  0  0  0  0  0
   -2.6135   -3.4076   -0.4531 H   0  0  0  0  0  0  0  0  0  0  0  0
   -3.5889   -1.9474   -0.5139 H   0  0  0  0  0  0  0  0  0  0  0  0
    0.3275   -1.2252   -0.8582 H   0  0  0  0  0  0  0  0  0  0  0  0
   -3.5743   -1.6172    4.4531 H   0  0  0  0  0  0  0  0  0  0  0  0
   -7.9919    0.4037    3.3131 H   0  0  0  0  0  0  0  0  0  0  0  0
   -2.4532    2.5952   -7.5686 H   0  0  0  0  0  0  0  0  0  0  0  0
   -7.3160    2.0348   -6.5819 H   0  0  0  0  0  0  0  0  0  0  0  0
   -6.4648    0.7406   -2.9005 H   0  0  0  0  0  0  0  0  0  0  0  0
   -7.4472    1.6616   -4.0556 H   0  0  0  0  0  0  0  0  0  0  0  0
   -7.6837   -0.8804   -4.0205 H   0  0  0  0  0  0  0  0  0  0  0  0
   -7.4246   -0.1828   -5.6211 H   0  0  0  0  0  0  0  0  0  0  0  0
   -6.0836   -2.2675   -5.1339 H   0  0  0  0  0  0  0  0  0  0  0  0
   -5.1341   -0.9026   -5.7087 H   0  0  0  0  0  0  0  0  0  0  0  0
   -2.9373   -1.4839   -3.2768 H   0  0  0  0  0  0  0  0  0  0  0  0
  1  2  1  0  0  0  0
  2  3  1  0  0  0  0
  3  4  1  0  0  0  0
  4  5  1  0  0  0  0
  5  6  1  0  0  0  0
  6  7  1  0  0  0  0
  7  8  1  0  0  0  0
  8  9  1  0  0  0  0
  9 10  4  0  0  0  0
 10 11  4  0  0  0  0
 11 12  4  0  0  0  0
 12 13  4  0  0  0  0
 13 14  4  0  0  0  0
 14 15  4  0  0  0  0
 15 16  1  0  0  0  0
 16 17  1  0  0  0  0
 17 18  1  0  0  0  0
 18 19  1  0  0  0  0
 19 20  1  0  0  0  0
 20 21  1  0  0  0  0
 21 22  1  0  0  0  0
 22 23  1  0  0  0  0
 15 24  1  0  0  0  0
 24 25  4  0  0  0  0
 14 26  1  0  0  0  0
 25 26  1  0  0  0  0
 26 27  1  0  0  0  0
 27 28  1  0  0  0  0
 28 29  1  0  0  0  0
 29 30  1  0  0  0  0
 30 31  2  0  0  0  0
 30 32  1  0  0  0  0
 25 33  4  0  0  0  0
 33 34  4  0  0  0  0
 34 35  4  0  0  0  0
 24 36  4  0  0  0  0
 35 36  4  0  0  0  0
 35 37  1  0  0  0  0
 34 38  1  0  0  0  0
 10 39  1  0  0  0  0
 39 40  1  0  0  0  0
  9 41  1  0  0  0  0
 40 41  4  0  0  0  0
 41 42  4  0  0  0  0
 42 43  4  0  0  0  0
 43 44  1  0  0  0  0
 43 45  4  0  0  0  0
 40 46  4  0  0  0  0
 45 46  4  0  0  0  0
 45 47  1  0  0  0  0
 39 48  1  0  0  0  0
 48 49  1  0  0  0  0
 49 50  1  0  0  0  0
 50 51  1  0  0  0  0
 51 52  2  0  0  0  0
 51 53  1  0  0  0  0
  1 54  1  0  0  0  0
  1 55  1  0  0  0  0
  1 56  1  0  0  0  0
  2 57  1  0  0  0  0
  2 58  1  0  0  0  0
  3 59  1  0  0  0  0
  3 60  1  0  0  0  0
  4 61  1  0  0  0  0
  4 62  1  0  0  0  0
  5 63  1  0  0  0  0
  5 64  1  0  0  0  0
  6 65  1  0  0  0  0
  6 66  1  0  0  0  0
  7 67  1  0  0  0  0
  7 68  1  0  0  0  0
  8 69  1  0  0  0  0
  8 70  1  0  0  0  0
 11 71  1  0  0  0  0
 12 72  1  0  0  0  0
 13 73  1  0  0  0  0
 16 74  1  0  0  0  0
 16 75  1  0  0  0  0
 17 76  1  0  0  0  0
 17 77  1  0  0  0  0
 18 78  1  0  0  0  0
 18 79  1  0  0  0  0
 19 80  1  0  0  0  0
 19 81  1  0  0  0  0
 20 82  1  0  0  0  0
 20 83  1  0  0  0  0
 21 84  1  0  0  0  0
 21 85  1  0  0  0  0
 22 86  1  0  0  0  0
 22 87  1  0  0  0  0
 23 88  1  0  0  0  0
 23 89  1  0  0  0  0
 23 90  1  0  0  0  0
 27 91  1  0  0  0  0
 27 92  1  0  0  0  0
 28 93  1  0  0  0  0
 28 94  1  0  0  0  0
 29 95  1  0  0  0  0
 29 96  1  0  0  0  0
 32 97  1  0  0  0  0
 33 98  1  0  0  0  0
 36 99  1  0  0  0  0
 42100  1  0  0  0  0
 46101  1  0  0  0  0
 48102  1  0  0  0  0
 48103  1  0  0  0  0
 49104  1  0  0  0  0
 49105  1  0  0  0  0
 50106  1  0  0  0  0
 50107  1  0  0  0  0
 53108  1  0  0  0  0
M  CHG  1   1   1
M  END
