23

C          0.78061        0.01853        0.51987
O          0.17516        1.29880        0.28870
C          1.03421        2.35120        0.43800
O          2.20734        2.27181        0.76271
C          0.31524        3.66677        0.10618
C          0.81748        4.24162       -1.23402
C          0.40065        3.40823       -2.45092
C          0.38212        5.69724       -1.42819
N         -1.18806        3.51104        0.09491
H          0.06922       -0.75059        0.20704
H          0.98840       -0.10658        1.58646
H          1.69418       -0.09568       -0.07234
H          0.51634        4.35984        0.93090
H          1.91576        4.23938       -1.20578
H         -0.68407        3.41638       -2.59867
H          0.85935        3.80748       -3.36225
H          0.72517        2.36783       -2.35039
H          0.68211        6.31108       -0.57253
H          0.85301        6.12184       -2.32165
H         -0.70151        5.78797       -1.55191
H         -1.52560        3.25757        1.03321
H         -1.68342        4.35860       -0.20374
H         -1.45653        2.72907       -0.51998
