108

C          2.95225        1.07842       -0.45032
C          2.27234        2.40632       -0.74911
C          2.32544        2.80387       -2.22918
C          1.55714        1.88175       -3.18515
C          0.03789        1.88451       -2.98040
C         -0.66756        3.10137       -3.60058
C         -1.13470        2.88059       -5.04559
C         -2.25322        1.84375       -5.21454
N         -3.55611        2.35028       -4.76276
C         -4.34186        1.76377       -3.73708
C         -3.84145        1.45292       -2.52321
C         -4.60519        1.06442       -1.35290
C         -4.03153        0.63030       -0.22388
C         -4.64462        0.15640        1.07410
N         -5.94708        0.11627        1.45805
C         -7.10332        0.64095        0.70772
C         -7.68335       -0.39878       -0.25547
C         -8.89527       -1.17646        0.27502
C        -10.14078       -0.32825        0.56608
C        -10.74010        0.38544       -0.65082
C        -11.40318       -0.53536       -1.68078
C        -12.60272       -1.33884       -1.16776
C        -13.70866       -0.47571       -0.57806
C         -6.05994       -0.44977        2.72737
C         -4.76697       -0.76022        3.13605
N         -3.91977       -0.35240        2.10727
C         -2.44425       -0.43798        2.18995
C         -1.90929       -1.84055        1.89190
C         -2.02088       -2.27217        0.42958
C         -1.21332       -1.44878       -0.53931
O         -1.44512       -1.33760       -1.73033
O         -0.17738       -0.80478        0.01958
C         -4.49992       -1.35509        4.36789
C         -5.60896       -1.63184        5.18059
C         -6.92005       -1.30940        4.77071
C         -7.16984       -0.70228        3.53194
Cl        -8.29643       -1.64276        5.76211
Cl        -5.28737       -2.38526        6.70271
N         -5.69955        1.65930       -4.12941
C         -5.77464        2.32071       -5.38678
C         -4.47323        2.72049       -5.77729
C         -4.25680        3.35329       -6.98580
C         -5.36318        3.59459       -7.81107
Cl        -5.06706        4.38118       -9.32293
C         -6.66119        3.20489       -7.41459
C         -6.87277        2.56112       -6.19040
Cl        -8.05014        3.48967       -8.40566
C         -6.50433        0.42621       -4.03338
C         -6.08883       -0.69470       -5.00127
C         -4.80269       -1.43620       -4.64145
C         -5.01642       -2.50236       -3.60786
O         -5.07712       -3.70295       -3.81149
O         -5.15878       -2.04005       -2.35174
H          2.46889        0.24682       -0.96918
H          2.90894        0.86815        0.62335
H          4.00526        1.10282       -0.74750
H          1.23876        2.37589       -0.39018
H          2.77474        3.18692       -0.16505
H          1.94902        3.82832       -2.32845
H          3.37577        2.83130       -2.54544
H          1.78678        2.17132       -4.21787
H          1.92669        0.85629       -3.07285
H         -0.35808        0.95503       -3.39962
H         -0.19819        1.84640       -1.91278
H         -1.53130        3.37447       -2.98554
H         -0.00161        3.97162       -3.57844
H         -1.46433        3.84308       -5.45552
H         -0.27340        2.56448       -5.64687
H         -2.29936        1.55491       -6.27340
H         -2.00909        0.91361       -4.69173
H         -2.77433        1.57305       -2.37212
H         -5.67316        1.15344       -1.45842
H         -2.95048        0.59785       -0.23430
H         -7.84784        1.00164        1.42218
H         -6.78819        1.54417        0.18110
H         -7.96888        0.10042       -1.18611
H         -6.90652       -1.12401       -0.52255
H         -9.15367       -1.95595       -0.45169
H         -8.61007       -1.70868        1.18893
H        -10.89896       -0.96935        1.02967
H         -9.90294        0.42687        1.32250
H        -11.47546        1.11749       -0.29730
H         -9.96917        0.97758       -1.15584
H        -11.73581        0.08202       -2.52504
H        -10.66119       -1.23092       -2.08976
H        -13.01783       -1.91072       -2.00659
H        -12.27884       -2.07497       -0.42411
H        -14.01860        0.30306       -1.28205
H        -14.58374       -1.09049       -0.34478
H        -13.38867        0.00478        0.35149
H         -1.98365        0.32853        1.56410
H         -2.16561       -0.16578        3.21617
H         -0.85941       -1.88561        2.20642
H         -2.44519       -2.57406        2.50520
H         -1.67513       -3.30753        0.33454
H         -3.06907       -2.23838        0.11457
H          0.31160       -0.41175       -0.73829
H         -3.49042       -1.59470        4.67892
H         -8.17436       -0.44744        3.21802
H         -3.26393        3.66672       -7.28694
H         -7.87086        2.27185       -5.88368
H         -6.49773        0.03804       -3.01526
H         -7.55623        0.67793       -4.21957
H         -6.91113       -1.42107       -5.03937
H         -5.98740       -0.29659       -6.01681
H         -4.43608       -1.95094       -5.53881
H         -3.98612       -0.78609       -4.32639
H         -5.25784       -2.88254       -1.85731
