39

C          1.34542       -0.35475        0.64296
C          0.67436        0.97711        0.81086
C         -0.41226        1.13042        1.67212
N         -1.05087        2.32137        1.78289
C         -0.65316        3.38424        1.04666
C          0.42824        3.28614        0.18158
C          1.09258        2.07325        0.05871
C         -2.23156        2.43669        2.67678
C         -1.81536        2.86055        4.08404
C         -1.40025        4.32959        4.24135
C         -2.44910        5.36635        3.81998
C         -3.76254        5.32616        4.60669
C         -3.65188        5.73316        6.07964
C         -3.13360        7.15205        6.33492
C         -3.96630        8.23640        5.66697
H          1.01243       -0.82466       -0.28804
H          1.10840       -1.02669        1.47421
H          2.43348       -0.23629        0.61487
H         -0.78879        0.30703        2.27269
H         -1.20623        4.31199        1.15534
H          0.74646        4.14709       -0.40202
H          1.93243        1.98555       -0.63094
H         -2.95059        3.11704        2.21161
H         -2.70641        1.44870        2.70749
H         -2.64737        2.65500        4.76745
H         -0.98322        2.23089        4.42288
H         -1.12370        4.50061        5.28865
H         -0.48536        4.50701        3.66431
H         -2.00229        6.36401        3.89695
H         -2.68406        5.24069        2.75806
H         -4.48553        5.98218        4.10742
H         -4.19785        4.32188        4.55165
H         -4.64615        5.63901        6.53473
H         -3.00816        5.02256        6.61090
H         -3.13593        7.32954        7.41723
H         -2.09088        7.24119        6.01145
H         -5.02133        8.15050        5.94552
H         -3.61366        9.22584        5.97533
H         -3.89055        8.18597        4.57663
