 xtb: 6.7.1 (edcfbbe)
          12202407073D

 47 48  0     0  0            999 V2000
    1.2081    0.4629   -0.3941 C   0  0  0  0  0  0  0  0  0  0  0  0
    0.6699   -0.3493   -1.5651 C   0  0  0  0  0  0  0  0  0  0  0  0
    1.0446   -1.7921   -1.5789 N   0  0  0  0  0  0  0  0  0  0  0  0
    0.5778   -2.4779   -0.3157 C   0  0  0  0  0  0  0  0  0  0  0  0
   -0.9160   -2.6426   -0.1839 C   0  0  0  0  0  0  0  0  0  0  0  0
   -1.7260   -1.6089    0.2722 C   0  0  0  0  0  0  0  0  0  0  0  0
   -3.0965   -1.7954    0.3749 C   0  0  0  0  0  0  0  0  0  0  0  0
   -3.6673   -3.0083    0.0556 C   0  0  0  0  0  0  0  0  0  0  0  0
   -2.8607   -4.0710   -0.3579 C   0  0  0  0  0  0  0  0  0  0  0  0
   -1.4878   -3.8733   -0.4889 C   0  0  0  0  0  0  0  0  0  0  0  0
   -3.4809   -5.2254   -0.6784 O   0  0  0  0  0  0  0  0  0  0  0  0
   -2.8146   -6.4355   -0.6039 C   0  0  0  0  0  0  0  0  0  0  0  0
   -3.0870   -7.3772   -1.5876 C   0  0  0  0  0  0  0  0  0  0  0  0
   -2.5054   -8.6300   -1.5140 C   0  0  0  0  0  0  0  0  0  0  0  0
   -1.6529   -8.9442   -0.4685 C   0  0  0  0  0  0  0  0  0  0  0  0
   -1.3926   -8.0049    0.5151 C   0  0  0  0  0  0  0  0  0  0  0  0
   -1.9719   -6.7498    0.4555 C   0  0  0  0  0  0  0  0  0  0  0  0
    0.3473   -2.4767   -2.7145 C   0  0  0  0  0  0  0  0  0  0  0  0
    0.7398   -2.0888   -4.1303 C   0  0  0  0  0  0  0  0  0  0  0  0
    2.5309   -1.9886   -1.6457 C   0  0  0  0  0  0  0  0  0  0  0  0
    3.3388   -1.0268   -2.5085 C   0  0  0  0  0  0  0  0  0  0  0  0
    0.7300    0.2074    0.5469 H   0  0  0  0  0  0  0  0  0  0  0  0
    0.9915    1.5104   -0.5900 H   0  0  0  0  0  0  0  0  0  0  0  0
    2.2820    0.3664   -0.2708 H   0  0  0  0  0  0  0  0  0  0  0  0
   -0.4209   -0.3005   -1.5631 H   0  0  0  0  0  0  0  0  0  0  0  0
    1.0286    0.0884   -2.4956 H   0  0  0  0  0  0  0  0  0  0  0  0
    1.0413   -3.4669   -0.3025 H   0  0  0  0  0  0  0  0  0  0  0  0
    0.9642   -1.9088    0.5297 H   0  0  0  0  0  0  0  0  0  0  0  0
   -1.3033   -0.6633    0.5718 H   0  0  0  0  0  0  0  0  0  0  0  0
   -3.7192   -0.9862    0.7218 H   0  0  0  0  0  0  0  0  0  0  0  0
   -4.7301   -3.1673    0.1358 H   0  0  0  0  0  0  0  0  0  0  0  0
   -0.8709   -4.6957   -0.8228 H   0  0  0  0  0  0  0  0  0  0  0  0
   -3.7612   -7.1187   -2.3889 H   0  0  0  0  0  0  0  0  0  0  0  0
   -2.7216   -9.3630   -2.2757 H   0  0  0  0  0  0  0  0  0  0  0  0
   -1.2015   -9.9224   -0.4130 H   0  0  0  0  0  0  0  0  0  0  0  0
   -0.7444   -8.2509    1.3424 H   0  0  0  0  0  0  0  0  0  0  0  0
   -1.7921   -6.0236    1.2357 H   0  0  0  0  0  0  0  0  0  0  0  0
    0.5169   -3.5484   -2.5916 H   0  0  0  0  0  0  0  0  0  0  0  0
   -0.7204   -2.2911   -2.5809 H   0  0  0  0  0  0  0  0  0  0  0  0
    1.7378   -2.4279   -4.3894 H   0  0  0  0  0  0  0  0  0  0  0  0
    0.0468   -2.5888   -4.8034 H   0  0  0  0  0  0  0  0  0  0  0  0
    0.6536   -1.0225   -4.3155 H   0  0  0  0  0  0  0  0  0  0  0  0
    2.9139   -1.9217   -0.6253 H   0  0  0  0  0  0  0  0  0  0  0  0
    2.6973   -3.0092   -1.9963 H   0  0  0  0  0  0  0  0  0  0  0  0
    3.3371   -0.0141   -2.1187 H   0  0  0  0  0  0  0  0  0  0  0  0
    4.3691   -1.3761   -2.4939 H   0  0  0  0  0  0  0  0  0  0  0  0
    3.0184   -1.0009   -3.5428 H   0  0  0  0  0  0  0  0  0  0  0  0
  1  2  1  0  0  0  0
  2  3  1  0  0  0  0
  3  4  1  0  0  0  0
  4  5  1  0  0  0  0
  5  6  4  0  0  0  0
  6  7  4  0  0  0  0
  7  8  4  0  0  0  0
  8  9  4  0  0  0  0
  5 10  4  0  0  0  0
  9 10  4  0  0  0  0
  9 11  1  0  0  0  0
 11 12  1  0  0  0  0
 12 13  4  0  0  0  0
 13 14  4  0  0  0  0
 14 15  4  0  0  0  0
 15 16  4  0  0  0  0
 12 17  4  0  0  0  0
 16 17  4  0  0  0  0
  3 18  1  0  0  0  0
 18 19  1  0  0  0  0
  3 20  1  0  0  0  0
 20 21  1  0  0  0  0
  1 22  1  0  0  0  0
  1 23  1  0  0  0  0
  1 24  1  0  0  0  0
  2 25  1  0  0  0  0
  2 26  1  0  0  0  0
  4 27  1  0  0  0  0
  4 28  1  0  0  0  0
  6 29  1  0  0  0  0
  7 30  1  0  0  0  0
  8 31  1  0  0  0  0
 10 32  1  0  0  0  0
 13 33  1  0  0  0  0
 14 34  1  0  0  0  0
 15 35  1  0  0  0  0
 16 36  1  0  0  0  0
 17 37  1  0  0  0  0
 18 38  1  0  0  0  0
 18 39  1  0  0  0  0
 19 40  1  0  0  0  0
 19 41  1  0  0  0  0
 19 42  1  0  0  0  0
 20 43  1  0  0  0  0
 20 44  1  0  0  0  0
 21 45  1  0  0  0  0
 21 46  1  0  0  0  0
 21 47  1  0  0  0  0
M  CHG  1   1   1
M  END
