25

C          0.68569        0.05312        0.20105
C          0.29596        0.93856       -0.97440
C          1.00596        0.53543       -2.27375
N          0.60319       -0.81743       -2.71087
C          1.42434       -1.93701       -2.73201
C          0.67344       -2.97139       -3.21505
N         -0.58603       -2.46112       -3.47769
C         -0.61624       -1.15884       -3.15883
C         -1.71294       -3.19833       -4.03448
C          0.74188        1.55396       -3.38169
H          0.37209       -0.98291        0.04204
H          0.20573        0.41108        1.11743
H          1.76883        0.06612        0.35954
H         -0.79163        0.89710       -1.10597
H          0.55056        1.97593       -0.72592
H          2.08890        0.51425       -2.09477
H          2.44373       -1.85125       -2.39710
H          0.87438       -4.01086       -3.40924
H         -1.47237       -0.50064       -3.25490
H         -2.63501       -2.87189       -3.54611
H         -1.76986       -2.99363       -5.10684
H         -1.57838       -4.27062       -3.86990
H          1.13479        2.53834       -3.10751
H          1.22343        1.24132       -4.31414
H         -0.32940        1.66098       -3.58140
