 xtb: 6.7.1 (edcfbbe)
          12202407083D

 30 30  0     0  0            999 V2000
    1.2051   -0.4737   -0.5078 C   0  0  0  0  0  0  0  0  0  0  0  0
    0.6013   -1.7243    0.1212 C   0  0  0  0  0  0  0  0  0  0  0  0
    0.9155   -1.8628    1.6109 C   0  0  0  0  0  0  0  0  0  0  0  0
    0.2394   -0.8028    2.4926 C   0  0  0  0  0  0  0  0  0  0  0  0
   -1.2024   -0.9787    2.4951 N   0  0  0  0  0  0  0  0  0  0  0  0
   -1.9606   -0.2909    1.6380 C   0  0  0  0  0  0  0  0  0  0  0  0
   -3.3328   -0.4868    1.5603 C   0  0  0  0  0  0  0  0  0  0  0  0
   -4.1640    0.2798    0.5926 C   0  0  0  0  0  0  0  0  0  0  0  0
   -3.8998   -1.4304    2.4135 C   0  0  0  0  0  0  0  0  0  0  0  0
   -3.1078   -2.1472    3.3082 C   0  0  0  0  0  0  0  0  0  0  0  0
   -1.7451   -1.8877    3.3099 C   0  0  0  0  0  0  0  0  0  0  0  0
   -3.6976   -3.1414    4.2454 C   0  0  0  0  0  0  0  0  0  0  0  0
    0.7842    0.4414   -0.0965 H   0  0  0  0  0  0  0  0  0  0  0  0
    1.0200   -0.4715   -1.5781 H   0  0  0  0  0  0  0  0  0  0  0  0
    2.2804   -0.4532   -0.3516 H   0  0  0  0  0  0  0  0  0  0  0  0
   -0.4803   -1.7420   -0.0410 H   0  0  0  0  0  0  0  0  0  0  0  0
    1.0132   -2.5974   -0.3859 H   0  0  0  0  0  0  0  0  0  0  0  0
    0.6152   -2.8547    1.9551 H   0  0  0  0  0  0  0  0  0  0  0  0
    1.9920   -1.7717    1.7574 H   0  0  0  0  0  0  0  0  0  0  0  0
    0.6055   -0.8930    3.5169 H   0  0  0  0  0  0  0  0  0  0  0  0
    0.4778    0.1948    2.1240 H   0  0  0  0  0  0  0  0  0  0  0  0
   -1.4670    0.4338    1.0085 H   0  0  0  0  0  0  0  0  0  0  0  0
   -3.5834    1.0410    0.0818 H   0  0  0  0  0  0  0  0  0  0  0  0
   -4.5840   -0.3945   -0.1521 H   0  0  0  0  0  0  0  0  0  0  0  0
   -4.9985    0.7551    1.1034 H   0  0  0  0  0  0  0  0  0  0  0  0
   -4.9647   -1.6063    2.3826 H   0  0  0  0  0  0  0  0  0  0  0  0
   -1.0781   -2.4121    3.9778 H   0  0  0  0  0  0  0  0  0  0  0  0
   -2.9486   -3.8371    4.6108 H   0  0  0  0  0  0  0  0  0  0  0  0
   -4.1272   -2.6251    5.1034 H   0  0  0  0  0  0  0  0  0  0  0  0
   -4.4986   -3.6965    3.7649 H   0  0  0  0  0  0  0  0  0  0  0  0
  1  2  1  0  0  0  0
  2  3  1  0  0  0  0
  3  4  1  0  0  0  0
  4  5  1  0  0  0  0
  5  6  4  0  0  0  0
  6  7  4  0  0  0  0
  7  8  1  0  0  0  0
  7  9  4  0  0  0  0
  9 10  4  0  0  0  0
  5 11  4  0  0  0  0
 10 11  4  0  0  0  0
 10 12  1  0  0  0  0
  1 13  1  0  0  0  0
  1 14  1  0  0  0  0
  1 15  1  0  0  0  0
  2 16  1  0  0  0  0
  2 17  1  0  0  0  0
  3 18  1  0  0  0  0
  3 19  1  0  0  0  0
  4 20  1  0  0  0  0
  4 21  1  0  0  0  0
  6 22  1  0  0  0  0
  8 23  1  0  0  0  0
  8 24  1  0  0  0  0
  8 25  1  0  0  0  0
  9 26  1  0  0  0  0
 11 27  1  0  0  0  0
 12 28  1  0  0  0  0
 12 29  1  0  0  0  0
 12 30  1  0  0  0  0
M  CHG  1   1   1
M  END
