21

C          1.33473       -0.30482       -0.14325
C          0.38182       -0.03152       -1.30906
C          0.60047       -0.92242       -2.53650
C         -0.54494       -1.89607       -2.76601
S          0.93724       -1.79872        0.81389
C          1.68969       -3.05987       -0.07095
N          2.95620       -2.98960       -0.39191
N          0.96164       -4.10511       -0.36596
H          1.25775        0.53185        0.56032
H          2.37437       -0.32646       -0.48414
H         -0.66164       -0.05887       -0.97184
H          0.56403        1.00455       -1.62514
H          0.67402       -0.28251       -3.42484
H          1.54833       -1.46671       -2.47299
H         -1.48005       -1.35863       -2.95397
H         -0.33664       -2.52376       -3.63826
H         -0.69810       -2.55065       -1.90512
H          3.42998       -3.72399       -0.89835
H          3.49967       -2.19076       -0.08948
H         -0.00512       -4.10893       -0.05734
H          1.31391       -4.90839       -0.86524
