37

C          0.88667       -0.11063       -0.16322
C          0.33925       -0.29264        1.22806
C          0.10087       -1.59654        1.71927
C         -0.37942       -1.82816        3.01538
C         -0.59108       -0.69946        3.80147
C         -0.33392        0.59657        3.33164
C          0.13034        0.83676        2.04049
N         -0.62209        1.45607        4.39360
C         -0.49464        2.92096        4.40753
C          0.88627        3.42380        4.02447
O          1.12516        3.88241        2.90918
C          1.95754        3.41109        5.04850
C          2.17656        2.30230        5.87219
C          3.19827        2.33645        6.82316
C          3.99880        3.47142        6.94929
C          3.79144        4.57081        6.11712
C          2.77664        4.54010        5.16054
C         -1.12073        0.74537        5.41459
N         -1.05873       -0.55605        5.10527
C         -1.47562       -1.61851        6.01121
H          0.53682        0.83113       -0.59885
H          0.55284       -0.91812       -0.82314
H          1.98061       -0.10489       -0.13471
H          0.29163       -2.45491        1.07242
H         -0.56927       -2.82991        3.37916
H          0.32303        1.84013        1.67843
H         -1.22973        3.33138        3.70586
H         -0.75266        3.30106        5.40227
H          1.60494        1.38814        5.76608
H          3.38922        1.47302        7.45718
H          4.79993        3.49399        7.68589
H          4.42920        5.44804        6.20726
H          2.63396        5.39798        4.50522
H         -1.48589        1.15157        6.35105
H         -0.99128       -1.46552        6.97990
H         -2.56112       -1.57135        6.13213
H         -1.19246       -2.59969        5.62542
