 xtb: 6.7.1 (edcfbbe)
          12202407073D

 50 52  0     0  0            999 V2000
    0.2111   -1.1307    0.2943 Cl  0  0  0  0  0  0  0  0  0  0  0  0
    1.7775   -0.0754    1.0904 S   0  0  0  0  0  0  0  0  0  0  0  0
    1.2744    1.2371    1.2814 O   0  0  0  0  0  0  0  0  0  0  0  0
    2.2293   -0.8400    2.2034 O   0  0  0  0  0  0  0  0  0  0  0  0
    2.9534   -0.1223   -0.2844 C   0  0  0  0  0  0  0  0  0  0  0  0
    3.9357   -1.2517   -0.0768 C   0  0  0  0  0  0  0  0  0  0  0  0
    3.2985   -2.6410    0.0040 C   0  0  0  0  0  0  0  0  0  0  0  0
    2.5422   -3.0398   -1.2668 C   0  0  0  0  0  0  0  0  0  0  0  0
    2.3363   -4.8534   -1.3793 P   0  0  0  0  0  0  0  0  0  0  0  0
    1.2899   -5.5296   -0.0793 C   0  0  0  0  0  0  0  0  0  0  0  0
    0.5171   -4.7287    0.7540 C   0  0  0  0  0  0  0  0  0  0  0  0
   -0.3010   -5.3291    1.6965 C   0  0  0  0  0  0  0  0  0  0  0  0
   -0.3583   -6.7095    1.7987 C   0  0  0  0  0  0  0  0  0  0  0  0
    0.3943   -7.5062    0.9474 C   0  0  0  0  0  0  0  0  0  0  0  0
    1.2161   -6.9213    0.0039 C   0  0  0  0  0  0  0  0  0  0  0  0
    1.5443   -5.2494   -2.9529 C   0  0  0  0  0  0  0  0  0  0  0  0
    0.4133   -4.5235   -3.3232 C   0  0  0  0  0  0  0  0  0  0  0  0
   -0.2522   -4.8479   -4.4907 C   0  0  0  0  0  0  0  0  0  0  0  0
    0.1974   -5.8963   -5.2797 C   0  0  0  0  0  0  0  0  0  0  0  0
    1.3101   -6.6296   -4.8994 C   0  0  0  0  0  0  0  0  0  0  0  0
    1.9848   -6.3146   -3.7330 C   0  0  0  0  0  0  0  0  0  0  0  0
    3.9911   -5.5687   -1.3109 C   0  0  0  0  0  0  0  0  0  0  0  0
    4.4420   -6.2452   -0.1814 C   0  0  0  0  0  0  0  0  0  0  0  0
    5.7367   -6.7342   -0.1522 C   0  0  0  0  0  0  0  0  0  0  0  0
    6.5777   -6.5447   -1.2374 C   0  0  0  0  0  0  0  0  0  0  0  0
    6.1322   -5.8574   -2.3572 C   0  0  0  0  0  0  0  0  0  0  0  0
    4.8416   -5.3642   -2.3971 C   0  0  0  0  0  0  0  0  0  0  0  0
    2.3605   -0.2077   -1.1891 H   0  0  0  0  0  0  0  0  0  0  0  0
    3.4346    0.8513   -0.2528 H   0  0  0  0  0  0  0  0  0  0  0  0
    4.6720   -1.2304   -0.8851 H   0  0  0  0  0  0  0  0  0  0  0  0
    4.4651   -1.0764    0.8609 H   0  0  0  0  0  0  0  0  0  0  0  0
    4.1066   -3.3565    0.1838 H   0  0  0  0  0  0  0  0  0  0  0  0
    2.6363   -2.6741    0.8676 H   0  0  0  0  0  0  0  0  0  0  0  0
    1.5569   -2.5693   -1.3093 H   0  0  0  0  0  0  0  0  0  0  0  0
    3.1108   -2.7533   -2.1593 H   0  0  0  0  0  0  0  0  0  0  0  0
    0.5362   -3.6539    0.6648 H   0  0  0  0  0  0  0  0  0  0  0  0
   -0.8977   -4.7122    2.3498 H   0  0  0  0  0  0  0  0  0  0  0  0
   -0.9971   -7.1686    2.5370 H   0  0  0  0  0  0  0  0  0  0  0  0
    0.3366   -8.5813    1.0184 H   0  0  0  0  0  0  0  0  0  0  0  0
    1.8006   -7.5326   -0.6715 H   0  0  0  0  0  0  0  0  0  0  0  0
    0.0539   -3.7191   -2.6969 H   0  0  0  0  0  0  0  0  0  0  0  0
   -1.1256   -4.2862   -4.7834 H   0  0  0  0  0  0  0  0  0  0  0  0
   -0.3253   -6.1464   -6.1896 H   0  0  0  0  0  0  0  0  0  0  0  0
    1.6521   -7.4510   -5.5097 H   0  0  0  0  0  0  0  0  0  0  0  0
    2.8504   -6.8883   -3.4329 H   0  0  0  0  0  0  0  0  0  0  0  0
    3.7845   -6.3863    0.6646 H   0  0  0  0  0  0  0  0  0  0  0  0
    6.0889   -7.2627    0.7198 H   0  0  0  0  0  0  0  0  0  0  0  0
    7.5842   -6.9318   -1.2111 H   0  0  0  0  0  0  0  0  0  0  0  0
    6.7913   -5.7072   -3.1981 H   0  0  0  0  0  0  0  0  0  0  0  0
    4.4859   -4.8295   -3.2678 H   0  0  0  0  0  0  0  0  0  0  0  0
  1  2  1  0  0  0  0
  2  3  2  0  0  0  0
  2  4  2  0  0  0  0
  2  5  1  0  0  0  0
  5  6  1  0  0  0  0
  6  7  1  0  0  0  0
  7  8  1  0  0  0  0
  8  9  1  0  0  0  0
  9 10  1  0  0  0  0
 10 11  4  0  0  0  0
 11 12  4  0  0  0  0
 12 13  4  0  0  0  0
 13 14  4  0  0  0  0
 10 15  4  0  0  0  0
 14 15  4  0  0  0  0
  9 16  1  0  0  0  0
 16 17  4  0  0  0  0
 17 18  4  0  0  0  0
 18 19  4  0  0  0  0
 19 20  4  0  0  0  0
 16 21  4  0  0  0  0
 20 21  4  0  0  0  0
  9 22  1  0  0  0  0
 22 23  4  0  0  0  0
 23 24  4  0  0  0  0
 24 25  4  0  0  0  0
 25 26  4  0  0  0  0
 22 27  4  0  0  0  0
 26 27  4  0  0  0  0
  5 28  1  0  0  0  0
  5 29  1  0  0  0  0
  6 30  1  0  0  0  0
  6 31  1  0  0  0  0
  7 32  1  0  0  0  0
  7 33  1  0  0  0  0
  8 34  1  0  0  0  0
  8 35  1  0  0  0  0
 11 36  1  0  0  0  0
 12 37  1  0  0  0  0
 13 38  1  0  0  0  0
 14 39  1  0  0  0  0
 15 40  1  0  0  0  0
 17 41  1  0  0  0  0
 18 42  1  0  0  0  0
 19 43  1  0  0  0  0
 20 44  1  0  0  0  0
 21 45  1  0  0  0  0
 23 46  1  0  0  0  0
 24 47  1  0  0  0  0
 25 48  1  0  0  0  0
 26 49  1  0  0  0  0
 27 50  1  0  0  0  0
M  CHG  1   1   1
M  END
