 xtb: 6.7.1 (edcfbbe)
          12202407073D

 29 28  0     0  0            999 V2000
    0.9868   -0.1077   -0.0586 C   0  0  0  0  0  0  0  0  0  0  0  0
    0.6128   -0.4686    1.3761 C   0  0  0  0  0  0  0  0  0  0  0  0
    1.1509    0.7975    2.5759 P   0  0  0  0  0  0  0  0  0  0  0  0
    0.6047    2.4568    2.0451 C   0  0  0  0  0  0  0  0  0  0  0  0
   -0.9120    2.5885    1.9481 C   0  0  0  0  0  0  0  0  0  0  0  0
    0.3931    0.4440    4.2007 C   0  0  0  0  0  0  0  0  0  0  0  0
    0.9220   -0.8188    4.8728 C   0  0  0  0  0  0  0  0  0  0  0  0
    2.9769    0.8596    2.7031 C   0  0  0  0  0  0  0  0  0  0  0  0
    3.6715   -0.4892    2.5369 C   0  0  0  0  0  0  0  0  0  0  0  0
    0.4389    0.7657   -0.4028 H   0  0  0  0  0  0  0  0  0  0  0  0
    0.7401   -0.9353   -0.7188 H   0  0  0  0  0  0  0  0  0  0  0  0
    2.0516    0.0922   -0.1551 H   0  0  0  0  0  0  0  0  0  0  0  0
   -0.4700   -0.5825    1.4780 H   0  0  0  0  0  0  0  0  0  0  0  0
    1.0762   -1.4146    1.6686 H   0  0  0  0  0  0  0  0  0  0  0  0
    1.0077    3.1753    2.7654 H   0  0  0  0  0  0  0  0  0  0  0  0
    1.0717    2.6603    1.0772 H   0  0  0  0  0  0  0  0  0  0  0  0
   -1.3836    2.4691    2.9202 H   0  0  0  0  0  0  0  0  0  0  0  0
   -1.1669    3.5773    1.5754 H   0  0  0  0  0  0  0  0  0  0  0  0
   -1.3322    1.8557    1.2632 H   0  0  0  0  0  0  0  0  0  0  0  0
    0.5743    1.3172    4.8351 H   0  0  0  0  0  0  0  0  0  0  0  0
   -0.6855    0.3605    4.0400 H   0  0  0  0  0  0  0  0  0  0  0  0
    1.9777   -0.7256    5.1145 H   0  0  0  0  0  0  0  0  0  0  0  0
    0.3838   -0.9835    5.8030 H   0  0  0  0  0  0  0  0  0  0  0  0
    0.7767   -1.6947    4.2448 H   0  0  0  0  0  0  0  0  0  0  0  0
    3.3315    1.5601    1.9419 H   0  0  0  0  0  0  0  0  0  0  0  0
    3.2070    1.2915    3.6815 H   0  0  0  0  0  0  0  0  0  0  0  0
    3.5231   -0.8918    1.5386 H   0  0  0  0  0  0  0  0  0  0  0  0
    4.7410   -0.3598    2.6851 H   0  0  0  0  0  0  0  0  0  0  0  0
    3.3205   -1.2187    3.2613 H   0  0  0  0  0  0  0  0  0  0  0  0
  1  2  1  0  0  0  0
  2  3  1  0  0  0  0
  3  4  1  0  0  0  0
  4  5  1  0  0  0  0
  3  6  1  0  0  0  0
  6  7  1  0  0  0  0
  3  8  1  0  0  0  0
  8  9  1  0  0  0  0
  1 10  1  0  0  0  0
  1 11  1  0  0  0  0
  1 12  1  0  0  0  0
  2 13  1  0  0  0  0
  2 14  1  0  0  0  0
  4 15  1  0  0  0  0
  4 16  1  0  0  0  0
  5 17  1  0  0  0  0
  5 18  1  0  0  0  0
  5 19  1  0  0  0  0
  6 20  1  0  0  0  0
  6 21  1  0  0  0  0
  7 22  1  0  0  0  0
  7 23  1  0  0  0  0
  7 24  1  0  0  0  0
  8 25  1  0  0  0  0
  8 26  1  0  0  0  0
  9 27  1  0  0  0  0
  9 28  1  0  0  0  0
  9 29  1  0  0  0  0
M  CHG  1   1   1
M  END
