 xtb: 6.7.1 (edcfbbe)
          12202407073D

 37 39  0     0  0            999 V2000
    0.5741   -0.0457   -0.2846 C   0  0  0  0  0  0  0  0  0  0  0  0
    0.1905   -0.2413    1.1433 C   0  0  0  0  0  0  0  0  0  0  0  0
   -0.0216   -1.5473    1.6238 C   0  0  0  0  0  0  0  0  0  0  0  0
   -0.3791   -1.8135    2.9258 C   0  0  0  0  0  0  0  0  0  0  0  0
   -0.5273   -0.7202    3.7725 C   0  0  0  0  0  0  0  0  0  0  0  0
   -0.3185    0.5904    3.3055 C   0  0  0  0  0  0  0  0  0  0  0  0
    0.0392    0.8454    1.9882 C   0  0  0  0  0  0  0  0  0  0  0  0
   -0.5514    1.4303    4.3792 N   0  0  0  0  0  0  0  0  0  0  0  0
   -0.4450    2.8651    4.3408 C   0  0  0  0  0  0  0  0  0  0  0  0
    1.0198    3.2959    4.0312 C   0  0  0  0  0  0  0  0  0  0  0  0
    1.3120    3.5239    2.8830 O   0  0  0  0  0  0  0  0  0  0  0  0
    1.9699    3.3865    5.1425 C   0  0  0  0  0  0  0  0  0  0  0  0
    1.6680    3.0586    6.4675 C   0  0  0  0  0  0  0  0  0  0  0  0
    2.6332    3.1768    7.4483 C   0  0  0  0  0  0  0  0  0  0  0  0
    3.9064    3.6274    7.1304 C   0  0  0  0  0  0  0  0  0  0  0  0
    4.2185    3.9576    5.8202 C   0  0  0  0  0  0  0  0  0  0  0  0
    3.2609    3.8360    4.8345 C   0  0  0  0  0  0  0  0  0  0  0  0
   -0.8764    0.6715    5.4234 C   0  0  0  0  0  0  0  0  0  0  0  0
   -0.8738   -0.6185    5.1032 N   0  0  0  0  0  0  0  0  0  0  0  0
   -1.1813   -1.7237    5.9691 C   0  0  0  0  0  0  0  0  0  0  0  0
    0.7803    0.9987   -0.4972 H   0  0  0  0  0  0  0  0  0  0  0  0
   -0.2290   -0.3838   -0.9379 H   0  0  0  0  0  0  0  0  0  0  0  0
    1.4576   -0.6348   -0.5228 H   0  0  0  0  0  0  0  0  0  0  0  0
    0.1031   -2.3695    0.9363 H   0  0  0  0  0  0  0  0  0  0  0  0
   -0.5374   -2.8218    3.2709 H   0  0  0  0  0  0  0  0  0  0  0  0
    0.2109    1.8499    1.6374 H   0  0  0  0  0  0  0  0  0  0  0  0
   -1.0603    3.2409    3.5171 H   0  0  0  0  0  0  0  0  0  0  0  0
   -0.7982    3.2918    5.2786 H   0  0  0  0  0  0  0  0  0  0  0  0
    0.6844    2.7156    6.7483 H   0  0  0  0  0  0  0  0  0  0  0  0
    2.3924    2.9237    8.4695 H   0  0  0  0  0  0  0  0  0  0  0  0
    4.6508    3.7242    7.9053 H   0  0  0  0  0  0  0  0  0  0  0  0
    5.2064    4.3119    5.5711 H   0  0  0  0  0  0  0  0  0  0  0  0
    3.4834    4.0899    3.8093 H   0  0  0  0  0  0  0  0  0  0  0  0
   -1.1295    1.0476    6.3968 H   0  0  0  0  0  0  0  0  0  0  0  0
   -1.4149   -1.3595    6.9666 H   0  0  0  0  0  0  0  0  0  0  0  0
   -2.0385   -2.2747    5.5795 H   0  0  0  0  0  0  0  0  0  0  0  0
   -0.3285   -2.4013    6.0248 H   0  0  0  0  0  0  0  0  0  0  0  0
  1  2  1  0  0  0  0
  2  3  4  0  0  0  0
  3  4  2  0  0  0  0
  4  5  4  0  0  0  0
  5  6  4  0  0  0  0
  2  7  4  0  0  0  0
  6  7  4  0  0  0  0
  6  8  1  0  0  0  0
  8  9  1  0  0  0  0
  9 10  1  0  0  0  0
 10 11  2  0  0  0  0
 10 12  1  0  0  0  0
 12 13  4  0  0  0  0
 13 14  4  0  0  0  0
 14 15  4  0  0  0  0
 15 16  4  0  0  0  0
 12 17  4  0  0  0  0
 16 17  4  0  0  0  0
  8 18  4  0  0  0  0
  5 19  1  0  0  0  0
 18 19  4  0  0  0  0
 19 20  1  0  0  0  0
  1 21  1  0  0  0  0
  1 22  1  0  0  0  0
  1 23  1  0  0  0  0
  3 24  1  0  0  0  0
  4 25  1  0  0  0  0
  7 26  1  0  0  0  0
  9 27  1  0  0  0  0
  9 28  1  0  0  0  0
 13 29  1  0  0  0  0
 14 30  1  0  0  0  0
 15 31  1  0  0  0  0
 16 32  1  0  0  0  0
 17 33  1  0  0  0  0
 18 34  1  0  0  0  0
 20 35  1  0  0  0  0
 20 36  1  0  0  0  0
 20 37  1  0  0  0  0
M  CHG  1   1   1
M  END
