29

C          0.99213       -0.13646       -0.04200
C          0.59985       -0.40441        1.39804
P          1.16238        0.79658        2.57176
C          0.59618        2.41786        2.09101
C         -0.90507        2.57157        1.94907
C          0.48347        0.45355        4.17480
C          0.88715       -0.85519        4.81908
C          2.93399        0.87248        2.62683
C          3.67932       -0.44687        2.61019
H          0.55869        0.80313       -0.39623
H          0.63808       -0.94198       -0.69231
H          2.07819       -0.06136       -0.14521
H         -0.49207       -0.47223        1.45587
H          0.98054       -1.39017        1.68597
H          0.95517        3.14137        2.83166
H          1.06886        2.68851        1.14055
H         -1.41099        2.36668        2.89659
H         -1.15805        3.59047        1.64061
H         -1.30085        1.87886        1.20116
H          0.74765        1.27305        4.85252
H         -0.60876        0.46228        4.09020
H          1.94388       -0.84211        5.09640
H          0.30756       -1.02617        5.73162
H          0.71998       -1.69669        4.14126
H          3.27563        1.45694        1.76459
H          3.23119        1.43905        3.51632
H          3.46197       -1.00856        1.69759
H          4.75928       -0.27405        2.65102
H          3.40477       -1.07580        3.45845
