50

Cl         1.15306        0.55328       -0.42834
S          3.11666        0.53914        0.15418
O          3.74017        1.54014       -0.68992
O          3.08541        0.68308        1.59451
C          3.80383       -1.04508       -0.27637
C          3.47359       -2.17829        0.68734
C          2.03807       -2.70886        0.67640
C          1.48912       -3.21532       -0.65974
P          1.93307       -4.90805       -1.19141
C          1.27245       -6.12299       -0.06250
C          0.40873       -5.77792        0.98513
C         -0.06152       -6.74013        1.88408
C          0.30221       -8.07409        1.73430
C          1.12585       -8.44646        0.67798
C          1.60085       -7.47979       -0.21200
C          1.24242       -5.20140       -2.82003
C          0.27231       -4.36387       -3.38342
C         -0.22623       -4.60776       -4.66675
C          0.22821       -5.70062       -5.40022
C          1.18787       -6.54632       -4.85420
C          1.69495       -6.29270       -3.57858
C          3.71068       -4.95012       -1.32990
C          4.51326       -5.75256       -0.51145
C          5.90354       -5.74332       -0.64584
C          6.51106       -4.91415       -1.58545
C          5.72838       -4.10266       -2.40134
C          4.33857       -4.12935       -2.28099
H          3.52384       -1.26097       -1.30987
H          4.88993       -0.89310       -0.26778
H          4.15765       -3.00661        0.48915
H          3.70513       -1.85924        1.71126
H          1.98365       -3.50934        1.42043
H          1.37553       -1.91752        1.04342
H          0.39455       -3.19892       -0.59239
H          1.74736       -2.52344       -1.46634
H          0.08418       -4.75244        1.12737
H         -0.71424       -6.44447        2.70163
H         -0.06181       -8.82154        2.43381
H          1.40299       -9.48901        0.54560
H          2.24851       -7.79846       -1.02413
H         -0.10993       -3.50683       -2.83842
H         -0.97305       -3.94333       -5.09398
H         -0.16428       -5.89248       -6.39519
H          1.54646       -7.40196       -5.42040
H          2.45940       -6.95472       -3.18024
H          4.07068       -6.39136        0.24747
H          6.51245       -6.38261       -0.01136
H          7.59349       -4.90312       -1.68248
H          6.19891       -3.45363       -3.13535
H          3.73921       -3.49944       -2.93505
