24

C         -2.39403       -0.02247       -0.10497
N         -0.92566        0.00380        0.00954
C         -0.24752       -1.16504        0.02363
C          1.13924       -1.17845        0.13182
C          1.84891        0.02161        0.23344
C          1.11580        1.21200        0.22038
C         -0.27089        1.18127        0.10643
C          3.31419        0.03153        0.35088
C          3.95071        0.67536        1.41975
C          5.33519        0.65601        1.48882
N          6.11839        0.05033        0.57562
C          5.49876       -0.56474       -0.45002
C          4.12133       -0.60262       -0.60229
H         -2.65336       -0.60993       -0.98978
H         -2.78896       -0.48451        0.80353
H         -2.77985        0.99415       -0.21012
H         -0.82493       -2.08261       -0.05001
H          1.66332       -2.13336        0.15046
H          1.62355        2.17370        0.28615
H         -0.85941        2.09440        0.09103
H          3.39057        1.17723        2.20200
H          5.86571        1.13931        2.30514
H          6.15890       -1.04003       -1.17094
H          3.69964       -1.11107       -1.46323
