 xtb: 6.7.1 (edcfbbe)
          12202407083D

 14 13  0     0  0            999 V2000
    1.0639    0.0333    0.0864 C   0  0  0  0  0  0  0  0  0  0  0  0
    0.5425    1.4603   -0.0515 C   0  0  0  0  0  0  0  0  0  0  0  0
    1.0485    2.1469   -1.3127 C   0  0  0  0  0  0  0  0  0  0  0  0
    0.5747    1.4030   -2.5213 N   0  0  0  0  0  0  0  0  0  0  0  0
    0.6304   -0.6451   -0.6474 H   0  0  0  0  0  0  0  0  0  0  0  0
    0.8009   -0.3556    1.0651 H   0  0  0  0  0  0  0  0  0  0  0  0
    2.1476    0.0056    0.0038 H   0  0  0  0  0  0  0  0  0  0  0  0
   -0.5487    1.4657   -0.0337 H   0  0  0  0  0  0  0  0  0  0  0  0
    0.8812    2.0473    0.8016 H   0  0  0  0  0  0  0  0  0  0  0  0
    0.6872    3.1740   -1.3691 H   0  0  0  0  0  0  0  0  0  0  0  0
    2.1395    2.1559   -1.3256 H   0  0  0  0  0  0  0  0  0  0  0  0
   -0.4525    1.4184   -2.5636 H   0  0  0  0  0  0  0  0  0  0  0  0
    0.9510    1.8008   -3.3894 H   0  0  0  0  0  0  0  0  0  0  0  0
    0.8795    0.4228   -2.4315 H   0  0  0  0  0  0  0  0  0  0  0  0
  1  2  1  0  0  0  0
  2  3  1  0  0  0  0
  3  4  1  0  0  0  0
  1  5  1  0  0  0  0
  1  6  1  0  0  0  0
  1  7  1  0  0  0  0
  2  8  1  0  0  0  0
  2  9  1  0  0  0  0
  3 10  1  0  0  0  0
  3 11  1  0  0  0  0
  4 12  1  0  0  0  0
  4 13  1  0  0  0  0
  4 14  1  0  0  0  0
M  CHG  1   1   1
M  END
