 xtb: 6.7.1 (edcfbbe)
          12202407083D

 18 18  0     0  0            999 V2000
    1.0405   -0.0373    0.1388 C   0  0  0  0  0  0  0  0  0  0  0  0
    0.3345    0.0203    1.4915 C   0  0  0  0  0  0  0  0  0  0  0  0
    0.7644    1.1943    2.2364 N   0  0  0  0  0  0  0  0  0  0  0  0
    0.1303    2.3587    2.0609 C   0  0  0  0  0  0  0  0  0  0  0  0
    0.5430    3.5026    2.7129 C   0  0  0  0  0  0  0  0  0  0  0  0
    1.6395    3.4407    3.5637 C   0  0  0  0  0  0  0  0  0  0  0  0
    2.2895    2.2238    3.7257 C   0  0  0  0  0  0  0  0  0  0  0  0
    1.8270    1.1165    3.0444 C   0  0  0  0  0  0  0  0  0  0  0  0
    0.8062    0.8378   -0.4621 H   0  0  0  0  0  0  0  0  0  0  0  0
    0.7086   -0.9200   -0.3994 H   0  0  0  0  0  0  0  0  0  0  0  0
    2.1188   -0.0982    0.2635 H   0  0  0  0  0  0  0  0  0  0  0  0
   -0.7462    0.0695    1.3469 H   0  0  0  0  0  0  0  0  0  0  0  0
    0.5686   -0.8730    2.0731 H   0  0  0  0  0  0  0  0  0  0  0  0
   -0.7184    2.3645    1.3924 H   0  0  0  0  0  0  0  0  0  0  0  0
    0.0100    4.4269    2.5568 H   0  0  0  0  0  0  0  0  0  0  0  0
    1.9783    4.3198    4.0893 H   0  0  0  0  0  0  0  0  0  0  0  0
    3.1452    2.1311    4.3753 H   0  0  0  0  0  0  0  0  0  0  0  0
    2.3041    0.1522    3.1441 H   0  0  0  0  0  0  0  0  0  0  0  0
  1  2  1  0  0  0  0
  2  3  1  0  0  0  0
  3  4  4  0  0  0  0
  4  5  4  0  0  0  0
  5  6  4  0  0  0  0
  6  7  4  0  0  0  0
  3  8  4  0  0  0  0
  7  8  4  0  0  0  0
  1  9  1  0  0  0  0
  1 10  1  0  0  0  0
  1 11  1  0  0  0  0
  2 12  1  0  0  0  0
  2 13  1  0  0  0  0
  4 14  1  0  0  0  0
  5 15  1  0  0  0  0
  6 16  1  0  0  0  0
  7 17  1  0  0  0  0
  8 18  1  0  0  0  0
M  CHG  1   1   1
M  END
