 xtb: 6.7.1 (edcfbbe)
          12202407083D

 24 24  0     0  0            999 V2000
   -2.5383   -0.1880   -0.0316 C   0  0  0  0  0  0  0  0  0  0  0  0
   -1.1138    0.1005   -0.0002 C   0  0  0  0  0  0  0  0  0  0  0  0
    0.0597    0.3488    0.0278 C   0  0  0  0  0  0  0  0  0  0  0  0
    1.4800    0.6061    0.0696 C   0  0  0  0  0  0  0  0  0  0  0  0
    2.2866   -0.6925    0.0215 C   0  0  0  0  0  0  0  0  0  0  0  0
   -3.1127    0.2042   -1.3094 N   0  0  0  0  0  0  0  0  0  0  0  0
   -3.1617    1.4463   -1.7815 C   0  0  0  0  0  0  0  0  0  0  0  0
   -3.7150    1.4366   -2.9924 N   0  0  0  0  0  0  0  0  0  0  0  0
   -4.0255    0.1487   -3.3008 C   0  0  0  0  0  0  0  0  0  0  0  0
   -3.6445   -0.6252   -2.2447 C   0  0  0  0  0  0  0  0  0  0  0  0
   -3.9434    2.5877   -3.8252 C   0  0  0  0  0  0  0  0  0  0  0  0
   -2.7084   -1.2587    0.1085 H   0  0  0  0  0  0  0  0  0  0  0  0
   -3.0448    0.3591    0.7715 H   0  0  0  0  0  0  0  0  0  0  0  0
    1.7058    1.1519    0.9892 H   0  0  0  0  0  0  0  0  0  0  0  0
    1.7449    1.2437   -0.7783 H   0  0  0  0  0  0  0  0  0  0  0  0
    3.3484   -0.4654    0.0569 H   0  0  0  0  0  0  0  0  0  0  0  0
    2.0392   -1.3268    0.8689 H   0  0  0  0  0  0  0  0  0  0  0  0
    2.0792   -1.2411   -0.8943 H   0  0  0  0  0  0  0  0  0  0  0  0
   -2.8028    2.3162   -1.2657 H   0  0  0  0  0  0  0  0  0  0  0  0
   -4.4853   -0.1321   -4.2262 H   0  0  0  0  0  0  0  0  0  0  0  0
   -3.7185   -1.6848   -2.1081 H   0  0  0  0  0  0  0  0  0  0  0  0
   -4.5929    3.3015   -3.3176 H   0  0  0  0  0  0  0  0  0  0  0  0
   -2.9993    3.0810   -4.0582 H   0  0  0  0  0  0  0  0  0  0  0  0
   -4.4177    2.2760   -4.7529 H   0  0  0  0  0  0  0  0  0  0  0  0
  1  2  1  0  0  0  0
  2  3  3  0  0  0  0
  3  4  1  0  0  0  0
  4  5  1  0  0  0  0
  1  6  1  0  0  0  0
  6  7  4  0  0  0  0
  7  8  4  0  0  0  0
  8  9  4  0  0  0  0
  6 10  4  0  0  0  0
  9 10  2  0  0  0  0
  8 11  1  0  0  0  0
  1 12  1  0  0  0  0
  1 13  1  0  0  0  0
  4 14  1  0  0  0  0
  4 15  1  0  0  0  0
  5 16  1  0  0  0  0
  5 17  1  0  0  0  0
  5 18  1  0  0  0  0
  7 19  1  0  0  0  0
  9 20  1  0  0  0  0
 10 21  1  0  0  0  0
 11 22  1  0  0  0  0
 11 23  1  0  0  0  0
 11 24  1  0  0  0  0
M  CHG  1   1   1
M  END
