35

O          1.94797       -0.67977       -0.44438
C          1.45467        0.20517        0.53239
N          1.48885       -0.50594        1.78553
C          0.86717       -1.68195        1.95370
N          1.03487       -2.07449        3.22886
C          1.80012       -1.13097        3.90455
C          2.08163       -0.11536        2.97674
C          2.82434        1.01311        3.31692
C          3.28127        1.07535        4.64040
C          3.00431        0.05449        5.56917
C          2.25392       -1.07671        5.22069
C          0.44105       -3.30750        3.77340
C         -1.07080       -3.29846        3.58920
O         -1.57595       -3.05628        2.49158
C         -1.94582       -3.62041        4.74358
C         -1.63307       -3.21379        6.04590
C         -2.49394       -3.53492        7.09797
C         -3.66539       -4.25047        6.85181
C         -3.98780       -4.63941        5.55277
C         -3.13348       -4.32018        4.49713
H          2.91715       -0.66777       -0.36679
H          2.06102        1.11366        0.55575
H          0.41873        0.46638        0.29811
H          0.32491       -2.21921        1.18159
H          3.04010        1.80038        2.60553
H          3.86879        1.93682        4.96160
H          3.38599        0.14909        6.58690
H          2.04700       -1.86043        5.93794
H          0.84726       -4.15449        3.20901
H          0.73553       -3.43974        4.81492
H         -0.75201       -2.62142        6.27085
H         -2.26299       -3.21772        8.11319
H         -4.33706       -4.49478        7.67283
H         -4.90972       -5.18547        5.36247
H         -3.40365       -4.62002        3.48580
