 xtb: 6.7.1 (edcfbbe)
          12202407083D

 28 28  0     0  0            999 V2000
    1.2639   -0.0133    0.1934 C   0  0  0  0  0  0  0  0  0  0  0  0
    0.6289    1.3448    0.4683 C   0  0  0  0  0  0  0  0  0  0  0  0
    1.0113    2.4082   -0.5621 C   0  0  0  0  0  0  0  0  0  0  0  0
    0.4377    2.1533   -1.9623 C   0  0  0  0  0  0  0  0  0  0  0  0
   -1.0054    2.2230   -1.9590 N   0  0  0  0  0  0  0  0  0  0  0  0
   -1.8575    1.1752   -1.7935 C   0  0  0  0  0  0  0  0  0  0  0  0
   -3.1238    1.6778   -1.7882 C   0  0  0  0  0  0  0  0  0  0  0  0
   -3.0249    3.0253   -1.9501 N   0  0  0  0  0  0  0  0  0  0  0  0
   -1.7342    3.3325   -2.0438 C   0  0  0  0  0  0  0  0  0  0  0  0
   -4.1322    3.9574   -1.9527 C   0  0  0  0  0  0  0  0  0  0  0  0
   -4.5183    4.3440   -0.5283 C   0  0  0  0  0  0  0  0  0  0  0  0
    0.9121   -0.4507   -0.7381 H   0  0  0  0  0  0  0  0  0  0  0  0
    1.0228   -0.7041    0.9961 H   0  0  0  0  0  0  0  0  0  0  0  0
    2.3454    0.0776    0.1406 H   0  0  0  0  0  0  0  0  0  0  0  0
   -0.4585    1.2443    0.5220 H   0  0  0  0  0  0  0  0  0  0  0  0
    0.9667    1.6929    1.4451 H   0  0  0  0  0  0  0  0  0  0  0  0
    0.6781    3.3888   -0.2159 H   0  0  0  0  0  0  0  0  0  0  0  0
    2.0971    2.4397   -0.6546 H   0  0  0  0  0  0  0  0  0  0  0  0
    0.8197    2.9037   -2.6574 H   0  0  0  0  0  0  0  0  0  0  0  0
    0.7330    1.1648   -2.3149 H   0  0  0  0  0  0  0  0  0  0  0  0
   -1.5195    0.1631   -1.7032 H   0  0  0  0  0  0  0  0  0  0  0  0
   -4.0645    1.1762   -1.6879 H   0  0  0  0  0  0  0  0  0  0  0  0
   -1.3421    4.3215   -2.1817 H   0  0  0  0  0  0  0  0  0  0  0  0
   -3.8380    4.8427   -2.5192 H   0  0  0  0  0  0  0  0  0  0  0  0
   -4.9768    3.4818   -2.4552 H   0  0  0  0  0  0  0  0  0  0  0  0
   -3.6913    4.8346   -0.0210 H   0  0  0  0  0  0  0  0  0  0  0  0
   -5.3577    5.0316   -0.5581 H   0  0  0  0  0  0  0  0  0  0  0  0
   -4.8128    3.4692    0.0455 H   0  0  0  0  0  0  0  0  0  0  0  0
  1  2  1  0  0  0  0
  2  3  1  0  0  0  0
  3  4  1  0  0  0  0
  4  5  1  0  0  0  0
  5  6  4  0  0  0  0
  6  7  2  0  0  0  0
  7  8  4  0  0  0  0
  5  9  4  0  0  0  0
  8  9  4  0  0  0  0
  8 10  1  0  0  0  0
 10 11  1  0  0  0  0
  1 12  1  0  0  0  0
  1 13  1  0  0  0  0
  1 14  1  0  0  0  0
  2 15  1  0  0  0  0
  2 16  1  0  0  0  0
  3 17  1  0  0  0  0
  3 18  1  0  0  0  0
  4 19  1  0  0  0  0
  4 20  1  0  0  0  0
  6 21  1  0  0  0  0
  7 22  1  0  0  0  0
  9 23  1  0  0  0  0
 10 24  1  0  0  0  0
 10 25  1  0  0  0  0
 11 26  1  0  0  0  0
 11 27  1  0  0  0  0
 11 28  1  0  0  0  0
M  CHG  1   1   1
M  END
