 xtb: 6.7.1 (edcfbbe)
          12202407083D

 19 19  0     0  0            999 V2000
    1.1046    0.3146    0.4949 C   0  0  0  0  0  0  0  0  0  0  0  0
   -0.1142    1.1078    0.6085 N   0  0  0  0  0  0  0  0  0  0  0  0
   -0.6889    0.9791    1.9138 N   0  0  0  0  0  0  0  0  0  0  0  0
   -0.4308    2.0584    2.6453 C   0  0  0  0  0  0  0  0  0  0  0  0
    0.1317    2.9692    1.8746 N   0  0  0  0  0  0  0  0  0  0  0  0
    0.1748    2.4971    0.5309 N   0  0  0  0  0  0  0  0  0  0  0  0
    0.6737    4.2574    2.1883 C   0  0  0  0  0  0  0  0  0  0  0  0
   -0.7235    2.2118    4.0780 C   0  0  0  0  0  0  0  0  0  0  0  0
    1.5174    0.5127   -0.4900 H   0  0  0  0  0  0  0  0  0  0  0  0
    0.8357   -0.7364    0.5589 H   0  0  0  0  0  0  0  0  0  0  0  0
    1.8478    0.5585    1.2588 H   0  0  0  0  0  0  0  0  0  0  0  0
   -1.1643    0.1321    2.1780 H   0  0  0  0  0  0  0  0  0  0  0  0
   -0.5446    2.9713   -0.0266 H   0  0  0  0  0  0  0  0  0  0  0  0
   -0.0701    5.0404    2.0249 H   0  0  0  0  0  0  0  0  0  0  0  0
    1.0034    4.2844    3.2244 H   0  0  0  0  0  0  0  0  0  0  0  0
    1.5240    4.4400    1.5327 H   0  0  0  0  0  0  0  0  0  0  0  0
   -1.2796    1.3567    4.4510 H   0  0  0  0  0  0  0  0  0  0  0  0
    0.2059    2.2927    4.6426 H   0  0  0  0  0  0  0  0  0  0  0  0
   -1.2976    3.1200    4.2567 H   0  0  0  0  0  0  0  0  0  0  0  0
  1  2  1  0  0  0  0
  2  3  1  0  0  0  0
  3  4  4  0  0  0  0
  4  5  4  0  0  0  0
  2  6  1  0  0  0  0
  5  6  1  0  0  0  0
  5  7  1  0  0  0  0
  4  8  1  0  0  0  0
  1  9  1  0  0  0  0
  1 10  1  0  0  0  0
  1 11  1  0  0  0  0
  3 12  1  0  0  0  0
  6 13  1  0  0  0  0
  7 14  1  0  0  0  0
  7 15  1  0  0  0  0
  7 16  1  0  0  0  0
  8 17  1  0  0  0  0
  8 18  1  0  0  0  0
  8 19  1  0  0  0  0
M  CHG  1   1   1
M  END
