24

C         -2.56462       -0.18694       -0.02406
C         -1.12705        0.09560        0.00717
C          0.05162        0.32898        0.03193
C          1.49609        0.60635        0.07125
C          2.30522       -0.67845        0.02348
N         -3.12263        0.19263       -1.32135
C         -3.15776        1.45095       -1.78281
N         -3.72833        1.42173       -2.99703
C         -4.04710        0.11424       -3.32449
C         -3.66171       -0.66208       -2.26782
C         -3.94550        2.59891       -3.82772
H         -2.75566       -1.25045        0.15324
H         -3.09346        0.38277        0.74747
H          1.74210        1.15831        0.98512
H          1.77336        1.24331       -0.77597
H          3.37629       -0.45472        0.05310
H          2.06905       -1.32661        0.87447
H          2.10009       -1.24137       -0.89365
H         -2.79133        2.33346       -1.26979
H         -4.50672       -0.09631       -4.27507
H         -3.69985       -1.71932       -2.06789
H         -4.59043        3.29791       -3.28867
H         -2.98030        3.06881       -4.03457
H         -4.42231        2.31615       -4.76984
