28

C          1.17532        0.02941        0.25127
C          0.63307        1.42646        0.51011
C          1.01046        2.43880       -0.57425
C          0.43706        2.13859       -1.95718
N         -1.02861        2.16841       -1.96781
C         -1.87009        1.06997       -2.05146
C         -3.14897        1.54875       -2.02101
N         -3.05794        2.92874       -1.93344
C         -1.76535        3.28898       -1.91605
C         -4.18132        3.86702       -1.87756
C         -4.35819        4.43027       -0.48089
H          0.72316       -0.42059       -0.63693
H          0.95289       -0.62292        1.10187
H          2.26114        0.04876        0.11477
H         -0.45526        1.38161        0.62757
H          1.03437        1.78146        1.46709
H          0.66565        3.42908       -0.25233
H          2.10304        2.49588       -0.64929
H          0.78171        2.89743       -2.66980
H          0.78032        1.16936       -2.33325
H         -1.44546        0.08258       -2.11423
H         -4.11953        1.08354       -2.05193
H         -1.38482        4.30247       -1.86105
H         -3.98640        4.67157       -2.59488
H         -5.09266        3.34903       -2.19561
H         -3.46530        4.97988       -0.16604
H         -5.21172        5.11374       -0.44793
H         -4.52720        3.62759        0.24387
