58

C          1.11063       -0.51138       -0.45411
C          1.11045       -1.08631        0.95416
C          1.54099       -0.08061        2.02533
C          0.67068        1.17521        2.13969
C         -0.81267        0.92057        2.42446
C         -1.11156        0.20140        3.74484
C         -0.65090        0.92728        5.01655
C         -1.11789        2.38162        5.16051
C         -2.63829        2.57406        5.15104
C         -3.32401        2.22328        6.47796
C         -3.24419        3.32732        7.54046
C         -4.00490        4.61274        7.20410
N         -5.45780        4.47874        7.36344
C         -6.10513        4.75624        8.50460
N         -7.42062        4.58168        8.31719
C         -7.64306        4.14013        7.01540
C         -6.38701        4.11458        6.38979
C         -6.23942        3.76799        5.04877
C         -7.40977        3.41154        4.36673
C         -8.66610        3.41786        5.00039
C         -8.81212        3.79016        6.34351
C         -8.43517        4.87496        9.33198
C         -8.42320        3.84883       10.44714
H          0.35383        0.27010       -0.56943
H          0.88632       -1.29833       -1.18137
H          2.08795       -0.08720       -0.70508
H          0.11862       -1.49002        1.18462
H          1.80273       -1.93646        0.98220
H          1.57261       -0.59239        2.99428
H          2.57154        0.23451        1.81799
H          1.08983        1.81753        2.92305
H          0.75090        1.75516        1.21240
H         -1.33992        1.88163        2.40434
H         -1.24750        0.33758        1.60421
H         -2.19206        0.02426        3.80349
H         -0.65720       -0.79634        3.72977
H         -0.98761        0.34900        5.88510
H          0.44513        0.91308        5.05625
H         -0.69462        2.79778        6.08207
H         -0.68747        2.97437        4.34496
H         -2.84532        3.61368        4.88083
H         -3.08862        1.97445        4.35366
H         -4.37549        1.98681        6.28648
H         -2.88577        1.30631        6.88855
H         -3.63010        2.92469        8.48519
H         -2.19175        3.57846        7.71474
H         -3.68379        5.39953        7.89877
H         -3.78754        4.98726        6.20082
H         -5.64046        5.08720        9.42654
H         -5.27541        3.76551        4.55813
H         -7.34721        3.11941        3.31762
H         -9.54839        3.12932        4.42758
H         -9.78047        3.80127        6.82763
H         -8.22630        5.87363        9.73225
H         -9.42403        4.91365        8.86534
H         -7.45647        3.84159       10.96051
H         -9.19951        4.07691       11.18375
H         -8.60086        2.84334       10.05372
