 xtb: 6.7.1 (edcfbbe)
          12202407083D

 77 76  0     0  0            999 V2000
    0.4679    0.0643    0.0898 C   0  0  0  0  0  0  0  0  0  0  0  0
    0.4353    0.7821   -1.2585 C   0  0  0  0  0  0  0  0  0  0  0  0
    1.4095    0.2170   -2.3024 C   0  0  0  0  0  0  0  0  0  0  0  0
    0.9157   -0.9760   -3.1285 C   0  0  0  0  0  0  0  0  0  0  0  0
   -0.1982   -0.6219   -4.1195 C   0  0  0  0  0  0  0  0  0  0  0  0
    0.3138    0.0314   -5.4059 C   0  0  0  0  0  0  0  0  0  0  0  0
    1.0252   -0.9264   -6.3633 C   0  0  0  0  0  0  0  0  0  0  0  0
    0.0959   -1.9709   -6.9715 C   0  0  0  0  0  0  0  0  0  0  0  0
   -0.2524   -1.2372    0.0727 N   0  0  0  0  0  0  0  0  0  0  0  0
    0.2591   -2.1878    1.1079 C   0  0  0  0  0  0  0  0  0  0  0  0
    0.3594   -1.6541    2.5371 C   0  0  0  0  0  0  0  0  0  0  0  0
   -0.9518   -1.4278    3.2950 C   0  0  0  0  0  0  0  0  0  0  0  0
   -1.8286   -2.6722    3.4623 C   0  0  0  0  0  0  0  0  0  0  0  0
   -1.1532   -3.8462    4.1756 C   0  0  0  0  0  0  0  0  0  0  0  0
   -0.6389   -3.5392    5.5837 C   0  0  0  0  0  0  0  0  0  0  0  0
   -1.7086   -3.0722    6.5724 C   0  0  0  0  0  0  0  0  0  0  0  0
   -2.7974   -4.1105    6.8159 C   0  0  0  0  0  0  0  0  0  0  0  0
   -1.7403   -1.0912    0.0584 C   0  0  0  0  0  0  0  0  0  0  0  0
   -2.3571   -1.7073   -1.1940 C   0  0  0  0  0  0  0  0  0  0  0  0
   -2.2334   -3.2309   -1.2472 C   0  0  0  0  0  0  0  0  0  0  0  0
   -2.6939   -3.8182   -2.5845 C   0  0  0  0  0  0  0  0  0  0  0  0
   -4.1737   -3.5690   -2.9065 C   0  0  0  0  0  0  0  0  0  0  0  0
   -4.4143   -2.4204   -3.8906 C   0  0  0  0  0  0  0  0  0  0  0  0
   -4.0120   -2.7440   -5.3319 C   0  0  0  0  0  0  0  0  0  0  0  0
   -4.9513   -3.7360   -6.0063 C   0  0  0  0  0  0  0  0  0  0  0  0
    0.0227    0.6901    0.8651 H   0  0  0  0  0  0  0  0  0  0  0  0
    1.5089   -0.1283    0.3588 H   0  0  0  0  0  0  0  0  0  0  0  0
   -0.5795    0.8057   -1.6556 H   0  0  0  0  0  0  0  0  0  0  0  0
    0.7194    1.8172   -1.0635 H   0  0  0  0  0  0  0  0  0  0  0  0
    1.6499    1.0169   -3.0028 H   0  0  0  0  0  0  0  0  0  0  0  0
    2.3433   -0.0530   -1.8036 H   0  0  0  0  0  0  0  0  0  0  0  0
    1.7667   -1.3630   -3.6901 H   0  0  0  0  0  0  0  0  0  0  0  0
    0.5859   -1.7992   -2.4819 H   0  0  0  0  0  0  0  0  0  0  0  0
   -0.7457   -1.5269   -4.3855 H   0  0  0  0  0  0  0  0  0  0  0  0
   -0.9084    0.0651   -3.6526 H   0  0  0  0  0  0  0  0  0  0  0  0
   -0.5386    0.4679   -5.9298 H   0  0  0  0  0  0  0  0  0  0  0  0
    0.9917    0.8484   -5.1511 H   0  0  0  0  0  0  0  0  0  0  0  0
    1.4574   -0.3325   -7.1704 H   0  0  0  0  0  0  0  0  0  0  0  0
    1.8515   -1.4280   -5.8552 H   0  0  0  0  0  0  0  0  0  0  0  0
   -0.7628   -1.4927   -7.4369 H   0  0  0  0  0  0  0  0  0  0  0  0
    0.6225   -2.5406   -7.7324 H   0  0  0  0  0  0  0  0  0  0  0  0
   -0.2639   -2.6722   -6.2221 H   0  0  0  0  0  0  0  0  0  0  0  0
   -0.0150   -1.6572   -0.8394 H   0  0  0  0  0  0  0  0  0  0  0  0
   -0.3782   -3.0728    1.0907 H   0  0  0  0  0  0  0  0  0  0  0  0
    1.2618   -2.4872    0.7903 H   0  0  0  0  0  0  0  0  0  0  0  0
    0.9417   -2.3946    3.0872 H   0  0  0  0  0  0  0  0  0  0  0  0
    0.9382   -0.7304    2.5533 H   0  0  0  0  0  0  0  0  0  0  0  0
   -0.6853   -1.0636    4.2873 H   0  0  0  0  0  0  0  0  0  0  0  0
   -1.5349   -0.6341    2.8224 H   0  0  0  0  0  0  0  0  0  0  0  0
   -2.7142   -2.3789    4.0267 H   0  0  0  0  0  0  0  0  0  0  0  0
   -2.1828   -3.0299    2.4904 H   0  0  0  0  0  0  0  0  0  0  0  0
   -1.8767   -4.6601    4.2353 H   0  0  0  0  0  0  0  0  0  0  0  0
   -0.3167   -4.2121    3.5744 H   0  0  0  0  0  0  0  0  0  0  0  0
   -0.1819   -4.4506    5.9752 H   0  0  0  0  0  0  0  0  0  0  0  0
    0.1477   -2.7828    5.5329 H   0  0  0  0  0  0  0  0  0  0  0  0
   -1.2136   -2.8548    7.5211 H   0  0  0  0  0  0  0  0  0  0  0  0
   -2.1621   -2.1415    6.2257 H   0  0  0  0  0  0  0  0  0  0  0  0
   -2.3580   -5.0573    7.1209 H   0  0  0  0  0  0  0  0  0  0  0  0
   -3.4643   -3.7746    7.6058 H   0  0  0  0  0  0  0  0  0  0  0  0
   -3.3940   -4.2786    5.9225 H   0  0  0  0  0  0  0  0  0  0  0  0
   -2.1513   -1.5781    0.9405 H   0  0  0  0  0  0  0  0  0  0  0  0
   -1.9891   -0.0306    0.1090 H   0  0  0  0  0  0  0  0  0  0  0  0
   -3.4137   -1.4400   -1.2073 H   0  0  0  0  0  0  0  0  0  0  0  0
   -1.9010   -1.2744   -2.0852 H   0  0  0  0  0  0  0  0  0  0  0  0
   -1.1923   -3.5358   -1.0978 H   0  0  0  0  0  0  0  0  0  0  0  0
   -2.8250   -3.6705   -0.4413 H   0  0  0  0  0  0  0  0  0  0  0  0
   -2.0718   -3.4104   -3.3830 H   0  0  0  0  0  0  0  0  0  0  0  0
   -2.5069   -4.8923   -2.5491 H   0  0  0  0  0  0  0  0  0  0  0  0
   -4.6042   -4.4752   -3.3305 H   0  0  0  0  0  0  0  0  0  0  0  0
   -4.7156   -3.3691   -1.9798 H   0  0  0  0  0  0  0  0  0  0  0  0
   -5.4772   -2.1718   -3.8799 H   0  0  0  0  0  0  0  0  0  0  0  0
   -3.8688   -1.5324   -3.5640 H   0  0  0  0  0  0  0  0  0  0  0  0
   -4.0149   -1.8145   -5.9055 H   0  0  0  0  0  0  0  0  0  0  0  0
   -2.9946   -3.1402   -5.3584 H   0  0  0  0  0  0  0  0  0  0  0  0
   -5.9736   -3.3658   -5.9869 H   0  0  0  0  0  0  0  0  0  0  0  0
   -4.6604   -3.8817   -7.0435 H   0  0  0  0  0  0  0  0  0  0  0  0
   -4.9266   -4.7036   -5.5120 H   0  0  0  0  0  0  0  0  0  0  0  0
  1  2  1  0  0  0  0
  2  3  1  0  0  0  0
  3  4  1  0  0  0  0
  4  5  1  0  0  0  0
  5  6  1  0  0  0  0
  6  7  1  0  0  0  0
  7  8  1  0  0  0  0
  1  9  1  0  0  0  0
  9 10  1  0  0  0  0
 10 11  1  0  0  0  0
 11 12  1  0  0  0  0
 12 13  1  0  0  0  0
 13 14  1  0  0  0  0
 14 15  1  0  0  0  0
 15 16  1  0  0  0  0
 16 17  1  0  0  0  0
  9 18  1  0  0  0  0
 18 19  1  0  0  0  0
 19 20  1  0  0  0  0
 20 21  1  0  0  0  0
 21 22  1  0  0  0  0
 22 23  1  0  0  0  0
 23 24  1  0  0  0  0
 24 25  1  0  0  0  0
  1 26  1  0  0  0  0
  1 27  1  0  0  0  0
  2 28  1  0  0  0  0
  2 29  1  0  0  0  0
  3 30  1  0  0  0  0
  3 31  1  0  0  0  0
  4 32  1  0  0  0  0
  4 33  1  0  0  0  0
  5 34  1  0  0  0  0
  5 35  1  0  0  0  0
  6 36  1  0  0  0  0
  6 37  1  0  0  0  0
  7 38  1  0  0  0  0
  7 39  1  0  0  0  0
  8 40  1  0  0  0  0
  8 41  1  0  0  0  0
  8 42  1  0  0  0  0
  9 43  1  0  0  0  0
 10 44  1  0  0  0  0
 10 45  1  0  0  0  0
 11 46  1  0  0  0  0
 11 47  1  0  0  0  0
 12 48  1  0  0  0  0
 12 49  1  0  0  0  0
 13 50  1  0  0  0  0
 13 51  1  0  0  0  0
 14 52  1  0  0  0  0
 14 53  1  0  0  0  0
 15 54  1  0  0  0  0
 15 55  1  0  0  0  0
 16 56  1  0  0  0  0
 16 57  1  0  0  0  0
 17 58  1  0  0  0  0
 17 59  1  0  0  0  0
 17 60  1  0  0  0  0
 18 61  1  0  0  0  0
 18 62  1  0  0  0  0
 19 63  1  0  0  0  0
 19 64  1  0  0  0  0
 20 65  1  0  0  0  0
 20 66  1  0  0  0  0
 21 67  1  0  0  0  0
 21 68  1  0  0  0  0
 22 69  1  0  0  0  0
 22 70  1  0  0  0  0
 23 71  1  0  0  0  0
 23 72  1  0  0  0  0
 24 73  1  0  0  0  0
 24 74  1  0  0  0  0
 25 75  1  0  0  0  0
 25 76  1  0  0  0  0
 25 77  1  0  0  0  0
M  CHG  1   1   1
M  END
