23

C          0.53397       -0.46379        0.22161
C          0.24858        0.77707       -0.19801
C         -1.12297        1.27180       -0.55551
N         -1.55838        2.28950        0.43755
C         -2.20560        1.84415        1.54474
C         -2.67401        2.72014        2.51361
C         -2.47802        4.07966        2.34993
C         -1.81026        4.53318        1.22111
C         -1.33643        3.62637        0.25528
C         -0.64389        4.16287       -0.97434
O         -1.51907        4.00900       -2.08003
H         -0.22214       -1.23383        0.34787
H          1.56110       -0.75121        0.44134
H          1.07400        1.47557       -0.31884
H         -1.13999        1.68926       -1.56242
H         -1.86377        0.46271       -0.54414
H         -2.34587        0.77092        1.64726
H         -3.19580        2.34258        3.39039
H         -2.84750        4.78496        3.09290
H         -1.66791        5.60494        1.08716
H         -0.39548        5.22304       -0.85727
H          0.28538        3.62127       -1.17021
H         -1.21468        4.61405       -2.78377
