 xtb: 6.7.1 (edcfbbe)
          12202407083D

 32 33  0     0  0            999 V2000
    2.2998    0.8482   -0.4674 C   0  0  0  0  0  0  0  0  0  0  0  0
    0.9198    0.5473   -1.0684 C   0  0  0  0  0  0  0  0  0  0  0  0
    0.9817   -0.6513   -1.9334 C   0  0  0  0  0  0  0  0  0  0  0  0
    1.0161   -1.9018   -1.4607 N   0  0  0  0  0  0  0  0  0  0  0  0
    0.9625   -2.1866   -0.1349 O   0  0  0  0  0  0  0  0  0  0  0  0
    1.1756   -2.7870   -2.4831 C   0  0  0  0  0  0  0  0  0  0  0  0
    1.2368   -2.0438   -3.6182 C   0  0  0  0  0  0  0  0  0  0  0  0
    1.1451   -0.7289   -3.2620 N   0  0  0  0  0  0  0  0  0  0  0  0
    0.9446    0.3617   -4.1742 C   0  0  0  0  0  0  0  0  0  0  0  0
   -0.5568    0.7708   -4.1048 C   0  0  0  0  0  0  0  0  0  0  0  0
   -1.2432    0.2646   -3.2455 O   0  0  0  0  0  0  0  0  0  0  0  0
   -1.0280    1.7472   -5.0766 C   0  0  0  0  0  0  0  0  0  0  0  0
   -0.2017    2.3749   -6.0176 C   0  0  0  0  0  0  0  0  0  0  0  0
   -0.7264    3.2913   -6.9019 C   0  0  0  0  0  0  0  0  0  0  0  0
   -2.0860    3.5986   -6.8664 C   0  0  0  0  0  0  0  0  0  0  0  0
   -2.9203    2.9854   -5.9347 C   0  0  0  0  0  0  0  0  0  0  0  0
   -2.3927    2.0722   -5.0511 C   0  0  0  0  0  0  0  0  0  0  0  0
   -2.7277    4.7353   -7.9722 Cl  0  0  0  0  0  0  0  0  0  0  0  0
    2.6442    0.0128    0.1355 H   0  0  0  0  0  0  0  0  0  0  0  0
    2.2291    1.7233    0.1703 H   0  0  0  0  0  0  0  0  0  0  0  0
    3.0324    1.0470   -1.2457 H   0  0  0  0  0  0  0  0  0  0  0  0
    0.2161    0.3468   -0.2582 H   0  0  0  0  0  0  0  0  0  0  0  0
    0.5551    1.4039   -1.6324 H   0  0  0  0  0  0  0  0  0  0  0  0
    0.4911   -3.0235    0.0136 H   0  0  0  0  0  0  0  0  0  0  0  0
    1.2249   -3.8470   -2.3384 H   0  0  0  0  0  0  0  0  0  0  0  0
    1.3436   -2.3580   -4.6362 H   0  0  0  0  0  0  0  0  0  0  0  0
    1.5647    1.2170   -3.8959 H   0  0  0  0  0  0  0  0  0  0  0  0
    1.2033    0.0350   -5.1813 H   0  0  0  0  0  0  0  0  0  0  0  0
    0.8542    2.1601   -6.0630 H   0  0  0  0  0  0  0  0  0  0  0  0
   -0.0910    3.7762   -7.6256 H   0  0  0  0  0  0  0  0  0  0  0  0
   -3.9704    3.2284   -5.9110 H   0  0  0  0  0  0  0  0  0  0  0  0
   -3.0223    1.5858   -4.3216 H   0  0  0  0  0  0  0  0  0  0  0  0
  1  2  1  0  0  0  0
  2  3  1  0  0  0  0
  3  4  4  0  0  0  0
  4  5  1  0  0  0  0
  4  6  1  0  0  0  0
  6  7  2  0  0  0  0
  3  8  4  0  0  0  0
  7  8  4  0  0  0  0
  8  9  1  0  0  0  0
  9 10  1  0  0  0  0
 10 11  2  0  0  0  0
 10 12  1  0  0  0  0
 12 13  4  0  0  0  0
 13 14  4  0  0  0  0
 14 15  4  0  0  0  0
 15 16  4  0  0  0  0
 12 17  4  0  0  0  0
 16 17  4  0  0  0  0
 15 18  1  0  0  0  0
  1 19  1  0  0  0  0
  1 20  1  0  0  0  0
  1 21  1  0  0  0  0
  2 22  1  0  0  0  0
  2 23  1  0  0  0  0
  5 24  1  0  0  0  0
  6 25  1  0  0  0  0
  7 26  1  0  0  0  0
  9 27  1  0  0  0  0
  9 28  1  0  0  0  0
 13 29  1  0  0  0  0
 14 30  1  0  0  0  0
 16 31  1  0  0  0  0
 17 32  1  0  0  0  0
M  CHG  1   1   1
M  END
