 xtb: 6.7.1 (edcfbbe)
          12202407083D

 25 25  0     0  0            999 V2000
    0.8650    1.3005    0.0912 O   0  0  0  0  0  0  0  0  0  0  0  0
    0.4697    1.1386   -1.4901 S   0  0  0  0  0  0  0  0  0  0  0  0
    0.8210    2.3504   -2.1366 O   0  0  0  0  0  0  0  0  0  0  0  0
    1.0011   -0.1054   -1.9373 O   0  0  0  0  0  0  0  0  0  0  0  0
   -1.3315    0.9862   -1.2946 C   0  0  0  0  0  0  0  0  0  0  0  0
   -1.7212   -0.4752   -1.3687 C   0  0  0  0  0  0  0  0  0  0  0  0
   -1.0952   -1.3227   -0.2530 C   0  0  0  0  0  0  0  0  0  0  0  0
   -1.7104   -1.0664    1.0390 N   0  0  0  0  0  0  0  0  0  0  0  0
   -2.8688   -1.6664    1.3406 C   0  0  0  0  0  0  0  0  0  0  0  0
   -3.5033   -1.4338    2.5424 C   0  0  0  0  0  0  0  0  0  0  0  0
   -2.9264   -0.5580    3.4550 C   0  0  0  0  0  0  0  0  0  0  0  0
   -1.7271    0.0566    3.1208 C   0  0  0  0  0  0  0  0  0  0  0  0
   -1.1396   -0.2185    1.9008 C   0  0  0  0  0  0  0  0  0  0  0  0
    1.5957    1.9176    0.1802 H   0  0  0  0  0  0  0  0  0  0  0  0
   -1.5820    1.4660   -0.3538 H   0  0  0  0  0  0  0  0  0  0  0  0
   -1.7603    1.5552   -2.1136 H   0  0  0  0  0  0  0  0  0  0  0  0
   -2.8095   -0.5770   -1.3595 H   0  0  0  0  0  0  0  0  0  0  0  0
   -1.3471   -0.8745   -2.3120 H   0  0  0  0  0  0  0  0  0  0  0  0
   -1.2250   -2.3794   -0.4958 H   0  0  0  0  0  0  0  0  0  0  0  0
   -0.0275   -1.1034   -0.2128 H   0  0  0  0  0  0  0  0  0  0  0  0
   -3.2799   -2.3456    0.6078 H   0  0  0  0  0  0  0  0  0  0  0  0
   -4.4327   -1.9346    2.7625 H   0  0  0  0  0  0  0  0  0  0  0  0
   -3.3999   -0.3637    4.4046 H   0  0  0  0  0  0  0  0  0  0  0  0
   -1.2446    0.7406    3.8006 H   0  0  0  0  0  0  0  0  0  0  0  0
   -0.2078    0.2409    1.5983 H   0  0  0  0  0  0  0  0  0  0  0  0
  1  2  1  0  0  0  0
  2  3  2  0  0  0  0
  2  4  2  0  0  0  0
  2  5  1  0  0  0  0
  5  6  1  0  0  0  0
  6  7  1  0  0  0  0
  7  8  1  0  0  0  0
  8  9  4  0  0  0  0
  9 10  4  0  0  0  0
 10 11  4  0  0  0  0
 11 12  4  0  0  0  0
  8 13  4  0  0  0  0
 12 13  4  0  0  0  0
  1 14  1  0  0  0  0
  5 15  1  0  0  0  0
  5 16  1  0  0  0  0
  6 17  1  0  0  0  0
  6 18  1  0  0  0  0
  7 19  1  0  0  0  0
  7 20  1  0  0  0  0
  9 21  1  0  0  0  0
 10 22  1  0  0  0  0
 11 23  1  0  0  0  0
 12 24  1  0  0  0  0
 13 25  1  0  0  0  0
M  CHG  1   1   1
M  END
