 xtb: 6.7.1 (edcfbbe)
          12202407083D

 20 21  0     0  0            999 V2000
    0.9979    0.6268    0.5802 N   0  0  0  0  0  0  0  0  0  0  0  0
    2.1068    0.5976    0.4035 N   0  0  0  0  0  0  0  0  0  0  0  0
    3.2647    0.3937    0.2393 N   0  0  0  0  0  0  0  0  0  0  0  0
    4.2305    1.3223   -0.2448 C   0  0  0  0  0  0  0  0  0  0  0  0
    3.9702    1.7094   -1.7205 C   0  0  0  0  0  0  0  0  0  0  0  0
    2.6049    2.1329   -1.9046 N   0  0  0  0  0  0  0  0  0  0  0  0
    1.9698    3.1939   -1.4184 C   0  0  0  0  0  0  0  0  0  0  0  0
    0.6800    3.0738   -1.7422 N   0  0  0  0  0  0  0  0  0  0  0  0
    0.5850    1.9066   -2.4362 C   0  0  0  0  0  0  0  0  0  0  0  0
    1.7457    1.3394   -2.5345 N   0  0  0  0  0  0  0  0  0  0  0  0
   -0.3960    3.9711   -1.4237 C   0  0  0  0  0  0  0  0  0  0  0  0
    4.2521    2.2227    0.3838 H   0  0  0  0  0  0  0  0  0  0  0  0
    5.2027    0.8313   -0.1812 H   0  0  0  0  0  0  0  0  0  0  0  0
    4.6591    2.5017   -2.0183 H   0  0  0  0  0  0  0  0  0  0  0  0
    4.1039    0.8382   -2.3652 H   0  0  0  0  0  0  0  0  0  0  0  0
    2.4113    4.0034   -0.8698 H   0  0  0  0  0  0  0  0  0  0  0  0
   -0.3212    1.5043   -2.8425 H   0  0  0  0  0  0  0  0  0  0  0  0
   -0.0538    4.7301   -0.7236 H   0  0  0  0  0  0  0  0  0  0  0  0
   -0.7603    4.4576   -2.3304 H   0  0  0  0  0  0  0  0  0  0  0  0
   -1.2172    3.4111   -0.9750 H   0  0  0  0  0  0  0  0  0  0  0  0
  1  2  2  0  0  0  0
  1  3  1  0  0  0  0
  2  3  2  0  0  0  0
  3  4  1  0  0  0  0
  4  5  1  0  0  0  0
  5  6  1  0  0  0  0
  6  7  4  0  0  0  0
  7  8  4  0  0  0  0
  8  9  4  0  0  0  0
  6 10  4  0  0  0  0
  9 10  2  0  0  0  0
  8 11  1  0  0  0  0
  4 12  1  0  0  0  0
  4 13  1  0  0  0  0
  5 14  1  0  0  0  0
  5 15  1  0  0  0  0
  7 16  1  0  0  0  0
  9 17  1  0  0  0  0
 11 18  1  0  0  0  0
 11 19  1  0  0  0  0
 11 20  1  0  0  0  0
M  CHG  1   1   1
M  END
