 xtb: 6.7.1 (edcfbbe)
          12202407083D

 69 69  0     0  0            999 V2000
    0.9458   -0.1117   -0.2939 C   0  0  0  0  0  0  0  0  0  0  0  0
    0.4632   -1.5572   -0.3075 C   0  0  0  0  0  0  0  0  0  0  0  0
    1.0206   -2.3908    0.8475 C   0  0  0  0  0  0  0  0  0  0  0  0
    0.6186   -1.9105    2.2436 C   0  0  0  0  0  0  0  0  0  0  0  0
   -0.8885   -1.8593    2.5006 C   0  0  0  0  0  0  0  0  0  0  0  0
   -1.6164   -3.1954    2.3420 C   0  0  0  0  0  0  0  0  0  0  0  0
   -1.1292   -4.3109    3.2694 C   0  0  0  0  0  0  0  0  0  0  0  0
   -1.1995   -3.9866    4.7634 C   0  0  0  0  0  0  0  0  0  0  0  0
   -2.5847   -3.5818    5.2711 C   0  0  0  0  0  0  0  0  0  0  0  0
   -3.6741   -4.6379    5.0774 C   0  0  0  0  0  0  0  0  0  0  0  0
   -3.4407   -5.9520    5.8268 C   0  0  0  0  0  0  0  0  0  0  0  0
   -3.2848   -5.8136    7.3447 C   0  0  0  0  0  0  0  0  0  0  0  0
   -4.4140   -5.0563    8.0429 C   0  0  0  0  0  0  0  0  0  0  0  0
   -5.7884   -5.7311    7.9284 C   0  0  0  0  0  0  0  0  0  0  0  0
   -5.8338   -6.9474    8.7195 N   0  0  0  0  0  0  0  0  0  0  0  0
   -6.1194   -6.8675   10.0238 C   0  0  0  0  0  0  0  0  0  0  0  0
   -6.1234   -7.9967   10.8154 C   0  0  0  0  0  0  0  0  0  0  0  0
   -5.8210   -9.2262   10.2505 C   0  0  0  0  0  0  0  0  0  0  0  0
   -5.5096   -9.3035    8.8916 C   0  0  0  0  0  0  0  0  0  0  0  0
   -5.5280   -8.1223    8.1629 C   0  0  0  0  0  0  0  0  0  0  0  0
   -5.1071  -10.5835    8.2431 C   0  0  0  0  0  0  0  0  0  0  0  0
   -3.5759  -10.7598    8.2955 C   0  0  0  0  0  0  0  0  0  0  0  0
   -3.0106  -10.9082    9.7075 C   0  0  0  0  0  0  0  0  0  0  0  0
   -3.4448  -12.1763   10.4466 C   0  0  0  0  0  0  0  0  0  0  0  0
   -2.9474  -13.4565    9.7861 C   0  0  0  0  0  0  0  0  0  0  0  0
    0.5735    0.4191    0.5787 H   0  0  0  0  0  0  0  0  0  0  0  0
    0.5949    0.4105   -1.1810 H   0  0  0  0  0  0  0  0  0  0  0  0
    2.0329   -0.0739   -0.2826 H   0  0  0  0  0  0  0  0  0  0  0  0
   -0.6279   -1.5771   -0.2885 H   0  0  0  0  0  0  0  0  0  0  0  0
    0.7786   -2.0241   -1.2438 H   0  0  0  0  0  0  0  0  0  0  0  0
    0.7031   -3.4275    0.7156 H   0  0  0  0  0  0  0  0  0  0  0  0
    2.1120   -2.3783    0.7890 H   0  0  0  0  0  0  0  0  0  0  0  0
    1.0893   -2.5668    2.9791 H   0  0  0  0  0  0  0  0  0  0  0  0
    1.0242   -0.9102    2.4062 H   0  0  0  0  0  0  0  0  0  0  0  0
   -1.0500   -1.4753    3.5105 H   0  0  0  0  0  0  0  0  0  0  0  0
   -1.3434   -1.1429    1.8141 H   0  0  0  0  0  0  0  0  0  0  0  0
   -2.6833   -3.0263    2.5067 H   0  0  0  0  0  0  0  0  0  0  0  0
   -1.5070   -3.5409    1.3126 H   0  0  0  0  0  0  0  0  0  0  0  0
   -1.7163   -5.2093    3.0627 H   0  0  0  0  0  0  0  0  0  0  0  0
   -0.0924   -4.5493    3.0263 H   0  0  0  0  0  0  0  0  0  0  0  0
   -0.8439   -4.8563    5.3216 H   0  0  0  0  0  0  0  0  0  0  0  0
   -0.5113   -3.1685    4.9811 H   0  0  0  0  0  0  0  0  0  0  0  0
   -2.5020   -3.3258    6.3301 H   0  0  0  0  0  0  0  0  0  0  0  0
   -2.9006   -2.6768    4.7510 H   0  0  0  0  0  0  0  0  0  0  0  0
   -4.6332   -4.2078    5.3778 H   0  0  0  0  0  0  0  0  0  0  0  0
   -3.7545   -4.8704    4.0150 H   0  0  0  0  0  0  0  0  0  0  0  0
   -4.2677   -6.6281    5.5894 H   0  0  0  0  0  0  0  0  0  0  0  0
   -2.5350   -6.4225    5.4427 H   0  0  0  0  0  0  0  0  0  0  0  0
   -3.1779   -6.8102    7.7850 H   0  0  0  0  0  0  0  0  0  0  0  0
   -2.3572   -5.2795    7.5507 H   0  0  0  0  0  0  0  0  0  0  0  0
   -4.1647   -4.9343    9.0995 H   0  0  0  0  0  0  0  0  0  0  0  0
   -4.5008   -4.0611    7.6097 H   0  0  0  0  0  0  0  0  0  0  0  0
   -6.5599   -5.0503    8.2930 H   0  0  0  0  0  0  0  0  0  0  0  0
   -5.9982   -5.9714    6.8861 H   0  0  0  0  0  0  0  0  0  0  0  0
   -6.3536   -5.8920   10.4218 H   0  0  0  0  0  0  0  0  0  0  0  0
   -6.3657   -7.9121   11.8623 H   0  0  0  0  0  0  0  0  0  0  0  0
   -5.8349  -10.1203   10.8538 H   0  0  0  0  0  0  0  0  0  0  0  0
   -5.3069   -8.1247    7.1055 H   0  0  0  0  0  0  0  0  0  0  0  0
   -5.5822  -11.4237    8.7467 H   0  0  0  0  0  0  0  0  0  0  0  0
   -5.4186  -10.5852    7.1981 H   0  0  0  0  0  0  0  0  0  0  0  0
   -3.3201  -11.6418    7.7105 H   0  0  0  0  0  0  0  0  0  0  0  0
   -3.1057   -9.8988    7.8143 H   0  0  0  0  0  0  0  0  0  0  0  0
   -1.9218  -10.9167    9.6296 H   0  0  0  0  0  0  0  0  0  0  0  0
   -3.2836  -10.0328   10.3052 H   0  0  0  0  0  0  0  0  0  0  0  0
   -3.0418  -12.1258   11.4600 H   0  0  0  0  0  0  0  0  0  0  0  0
   -4.5327  -12.2173   10.5341 H   0  0  0  0  0  0  0  0  0  0  0  0
   -1.8693  -13.4213    9.6509 H   0  0  0  0  0  0  0  0  0  0  0  0
   -3.1834  -14.3133   10.4114 H   0  0  0  0  0  0  0  0  0  0  0  0
   -3.4133  -13.6128    8.8165 H   0  0  0  0  0  0  0  0  0  0  0  0
  1  2  1  0  0  0  0
  2  3  1  0  0  0  0
  3  4  1  0  0  0  0
  4  5  1  0  0  0  0
  5  6  1  0  0  0  0
  6  7  1  0  0  0  0
  7  8  1  0  0  0  0
  8  9  1  0  0  0  0
  9 10  1  0  0  0  0
 10 11  1  0  0  0  0
 11 12  1  0  0  0  0
 12 13  1  0  0  0  0
 13 14  1  0  0  0  0
 14 15  1  0  0  0  0
 15 16  4  0  0  0  0
 16 17  4  0  0  0  0
 17 18  4  0  0  0  0
 18 19  4  0  0  0  0
 15 20  4  0  0  0  0
 19 20  4  0  0  0  0
 19 21  1  0  0  0  0
 21 22  1  0  0  0  0
 22 23  1  0  0  0  0
 23 24  1  0  0  0  0
 24 25  1  0  0  0  0
  1 26  1  0  0  0  0
  1 27  1  0  0  0  0
  1 28  1  0  0  0  0
  2 29  1  0  0  0  0
  2 30  1  0  0  0  0
  3 31  1  0  0  0  0
  3 32  1  0  0  0  0
  4 33  1  0  0  0  0
  4 34  1  0  0  0  0
  5 35  1  0  0  0  0
  5 36  1  0  0  0  0
  6 37  1  0  0  0  0
  6 38  1  0  0  0  0
  7 39  1  0  0  0  0
  7 40  1  0  0  0  0
  8 41  1  0  0  0  0
  8 42  1  0  0  0  0
  9 43  1  0  0  0  0
  9 44  1  0  0  0  0
 10 45  1  0  0  0  0
 10 46  1  0  0  0  0
 11 47  1  0  0  0  0
 11 48  1  0  0  0  0
 12 49  1  0  0  0  0
 12 50  1  0  0  0  0
 13 51  1  0  0  0  0
 13 52  1  0  0  0  0
 14 53  1  0  0  0  0
 14 54  1  0  0  0  0
 16 55  1  0  0  0  0
 17 56  1  0  0  0  0
 18 57  1  0  0  0  0
 20 58  1  0  0  0  0
 21 59  1  0  0  0  0
 21 60  1  0  0  0  0
 22 61  1  0  0  0  0
 22 62  1  0  0  0  0
 23 63  1  0  0  0  0
 23 64  1  0  0  0  0
 24 65  1  0  0  0  0
 24 66  1  0  0  0  0
 25 67  1  0  0  0  0
 25 68  1  0  0  0  0
 25 69  1  0  0  0  0
M  CHG  1   1   1
M  END
