32

C          1.82827        0.12108        0.39882
C          1.07725        0.52697       -0.85281
C          1.15043       -0.41621       -2.02305
N          1.03394       -1.75984       -1.97970
O          0.71486       -2.45328       -0.81272
C          1.26402       -2.34133       -3.19770
C          1.47521       -1.30867       -4.06250
N          1.33380       -0.12603       -3.34110
C          1.38315        1.23081       -3.92468
C          0.04967        1.94953       -3.77723
O         -0.32823        2.38000       -2.68750
C         -0.83380        2.11972       -4.96033
C         -0.87102        1.18749       -6.00369
C         -1.75141        1.37576       -7.07472
C         -2.59093        2.48931       -7.10306
C         -2.56245        3.41806       -6.06593
C         -1.68918        3.23072       -4.99136
Cl        -3.67386        2.70623       -8.41922
H          1.36407       -0.74295        0.88167
H          1.82888        0.94133        1.12338
H          2.86524       -0.13884        0.16538
H          0.01016        0.64944       -0.64667
H          1.48786        1.47561       -1.20464
H          0.68299       -3.39601       -1.05969
H          1.24722       -3.41110       -3.30121
H          1.69124       -1.26212       -5.11660
H          2.15717        1.80810       -3.40777
H          1.68811        1.17207       -4.97390
H         -0.25780        0.29358       -6.00149
H         -1.79122        0.64678       -7.88176
H         -3.22202        4.28328       -6.08273
H         -1.68734        3.95666       -4.17862
