 xtb: 6.7.1 (edcfbbe)
          12202407083D

 31 30  0     0  0            999 V2000
    0.8901    0.1743    0.0283 C   0  0  0  0  0  0  0  0  0  0  0  0
    0.4309    1.4492   -0.4534 C   0  0  0  0  0  0  0  0  0  0  0  0
    0.0422    2.5121   -0.8542 C   0  0  0  0  0  0  0  0  0  0  0  0
   -0.4487    3.7801   -1.3575 C   0  0  0  0  0  0  0  0  0  0  0  0
    0.4450    4.9206   -0.9896 N   0  0  0  0  0  0  0  0  0  0  0  0
    1.8197    4.6667   -1.5382 C   0  0  0  0  0  0  0  0  0  0  0  0
    1.9661    4.6891   -3.0523 C   0  0  0  0  0  0  0  0  0  0  0  0
   -0.0728    6.1889   -1.5850 C   0  0  0  0  0  0  0  0  0  0  0  0
   -1.3533    6.7564   -0.9937 C   0  0  0  0  0  0  0  0  0  0  0  0
    0.5984    5.0294    0.5023 C   0  0  0  0  0  0  0  0  0  0  0  0
   -0.6006    4.6422    1.3575 C   0  0  0  0  0  0  0  0  0  0  0  0
    0.4895   -0.6183   -0.6017 H   0  0  0  0  0  0  0  0  0  0  0  0
    0.5547    0.0157    1.0522 H   0  0  0  0  0  0  0  0  0  0  0  0
    1.9780    0.1311   -0.0023 H   0  0  0  0  0  0  0  0  0  0  0  0
   -0.5197    3.7380   -2.4475 H   0  0  0  0  0  0  0  0  0  0  0  0
   -1.4459    3.9726   -0.9584 H   0  0  0  0  0  0  0  0  0  0  0  0
    2.4848    5.4173   -1.1062 H   0  0  0  0  0  0  0  0  0  0  0  0
    2.1191    3.6811   -1.1746 H   0  0  0  0  0  0  0  0  0  0  0  0
    1.8010    5.6743   -3.4773 H   0  0  0  0  0  0  0  0  0  0  0  0
    2.9904    4.4058   -3.2821 H   0  0  0  0  0  0  0  0  0  0  0  0
    1.3186    3.9694   -3.5439 H   0  0  0  0  0  0  0  0  0  0  0  0
    0.7191    6.9353   -1.4864 H   0  0  0  0  0  0  0  0  0  0  0  0
   -0.2375    6.0024   -2.6472 H   0  0  0  0  0  0  0  0  0  0  0  0
   -1.2243    7.0885    0.0317 H   0  0  0  0  0  0  0  0  0  0  0  0
   -1.6250    7.6290   -1.5837 H   0  0  0  0  0  0  0  0  0  0  0  0
   -2.1842    6.0591   -1.0505 H   0  0  0  0  0  0  0  0  0  0  0  0
    1.4213    4.3733    0.7916 H   0  0  0  0  0  0  0  0  0  0  0  0
    0.8940    6.0579    0.7168 H   0  0  0  0  0  0  0  0  0  0  0  0
   -0.8080    3.5778    1.2913 H   0  0  0  0  0  0  0  0  0  0  0  0
   -0.3405    4.8598    2.3909 H   0  0  0  0  0  0  0  0  0  0  0  0
   -1.5010    5.1987    1.1235 H   0  0  0  0  0  0  0  0  0  0  0  0
  1  2  1  0  0  0  0
  2  3  3  0  0  0  0
  3  4  1  0  0  0  0
  4  5  1  0  0  0  0
  5  6  1  0  0  0  0
  6  7  1  0  0  0  0
  5  8  1  0  0  0  0
  8  9  1  0  0  0  0
  5 10  1  0  0  0  0
 10 11  1  0  0  0  0
  1 12  1  0  0  0  0
  1 13  1  0  0  0  0
  1 14  1  0  0  0  0
  4 15  1  0  0  0  0
  4 16  1  0  0  0  0
  6 17  1  0  0  0  0
  6 18  1  0  0  0  0
  7 19  1  0  0  0  0
  7 20  1  0  0  0  0
  7 21  1  0  0  0  0
  8 22  1  0  0  0  0
  8 23  1  0  0  0  0
  9 24  1  0  0  0  0
  9 25  1  0  0  0  0
  9 26  1  0  0  0  0
 10 27  1  0  0  0  0
 10 28  1  0  0  0  0
 11 29  1  0  0  0  0
 11 30  1  0  0  0  0
 11 31  1  0  0  0  0
M  CHG  1   1   1
M  END
