 xtb: 6.7.1 (edcfbbe)
          12202407083D

 25 25  0     0  0            999 V2000
    1.1622    0.5319   -0.2053 C   0  0  0  0  0  0  0  0  0  0  0  0
    0.8001   -0.0099   -1.5834 C   0  0  0  0  0  0  0  0  0  0  0  0
    1.1410   -1.4898   -1.7601 C   0  0  0  0  0  0  0  0  0  0  0  0
    0.2955   -2.4296   -0.8907 C   0  0  0  0  0  0  0  0  0  0  0  0
   -1.0968   -2.3754   -1.2717 N   0  0  0  0  0  0  0  0  0  0  0  0
   -1.6629   -3.0607   -2.3023 C   0  0  0  0  0  0  0  0  0  0  0  0
   -2.9658   -2.6728   -2.3820 C   0  0  0  0  0  0  0  0  0  0  0  0
   -3.1739   -1.7508   -1.4011 N   0  0  0  0  0  0  0  0  0  0  0  0
   -2.0280   -1.5847   -0.7458 C   0  0  0  0  0  0  0  0  0  0  0  0
   -4.4217   -1.0880   -1.1329 C   0  0  0  0  0  0  0  0  0  0  0  0
    0.5853    0.0601    0.5874 H   0  0  0  0  0  0  0  0  0  0  0  0
    0.9722    1.6007   -0.1650 H   0  0  0  0  0  0  0  0  0  0  0  0
    2.2171    0.3699   -0.0009 H   0  0  0  0  0  0  0  0  0  0  0  0
   -0.2617    0.1594   -1.7853 H   0  0  0  0  0  0  0  0  0  0  0  0
    1.3592    0.5511   -2.3328 H   0  0  0  0  0  0  0  0  0  0  0  0
    1.0177   -1.7692   -2.8082 H   0  0  0  0  0  0  0  0  0  0  0  0
    2.1859   -1.6491   -1.4937 H   0  0  0  0  0  0  0  0  0  0  0  0
    0.6435   -3.4567   -1.0145 H   0  0  0  0  0  0  0  0  0  0  0  0
    0.3822   -2.1528    0.1604 H   0  0  0  0  0  0  0  0  0  0  0  0
   -1.1171   -3.7673   -2.8936 H   0  0  0  0  0  0  0  0  0  0  0  0
   -3.7399   -2.9844   -3.0533 H   0  0  0  0  0  0  0  0  0  0  0  0
   -1.8817   -0.9243    0.0868 H   0  0  0  0  0  0  0  0  0  0  0  0
   -4.3094   -0.4137   -0.2870 H   0  0  0  0  0  0  0  0  0  0  0  0
   -4.7378   -0.5159   -2.0060 H   0  0  0  0  0  0  0  0  0  0  0  0
   -5.1942   -1.8228   -0.9034 H   0  0  0  0  0  0  0  0  0  0  0  0
  1  2  1  0  0  0  0
  2  3  1  0  0  0  0
  3  4  1  0  0  0  0
  4  5  1  0  0  0  0
  5  6  4  0  0  0  0
  6  7  2  0  0  0  0
  7  8  4  0  0  0  0
  5  9  4  0  0  0  0
  8  9  4  0  0  0  0
  8 10  1  0  0  0  0
  1 11  1  0  0  0  0
  1 12  1  0  0  0  0
  1 13  1  0  0  0  0
  2 14  1  0  0  0  0
  2 15  1  0  0  0  0
  3 16  1  0  0  0  0
  3 17  1  0  0  0  0
  4 18  1  0  0  0  0
  4 19  1  0  0  0  0
  6 20  1  0  0  0  0
  7 21  1  0  0  0  0
  9 22  1  0  0  0  0
 10 23  1  0  0  0  0
 10 24  1  0  0  0  0
 10 25  1  0  0  0  0
M  CHG  1   1   1
M  END
