20

C          0.83544        0.08286       -0.08252
C          0.32806       -0.86492        0.71754
C         -1.13297       -1.12908        0.91507
N         -1.48297       -2.44094        0.31601
C         -1.32556       -3.57334        1.04123
C         -1.63833       -4.81362        0.49610
C         -2.12270       -4.88364       -0.80739
C         -2.28127       -3.70951       -1.53875
C         -1.94924       -2.49206       -0.95418
C         -2.45108       -6.15148       -1.39092
N         -2.71612       -7.17611       -1.86109
H          0.21738        0.75132       -0.67595
H          1.91273        0.22706       -0.15561
H          1.02377       -1.47249        1.29466
H         -1.38591       -1.16304        1.98021
H         -1.76455       -0.36437        0.44886
H         -0.93999       -3.47491        2.05285
H         -1.49985       -5.71720        1.08902
H         -2.65706       -3.73554       -2.56118
H         -2.04846       -1.55384       -1.49436
