 xtb: 6.7.1 (edcfbbe)
          12202407083D

 24 24  0     0  0            999 V2000
    0.4750   -0.0425    0.0148 C   0  0  0  0  0  0  0  0  0  0  0  0
    0.2997   -1.5331   -0.2938 C   0  0  0  0  0  0  0  0  0  0  0  0
    1.4336   -2.4293    0.2089 C   0  0  0  0  0  0  0  0  0  0  0  0
    1.4466   -2.6544    1.7184 C   0  0  0  0  0  0  0  0  0  0  0  0
    0.3277    0.2613    1.4208 N   0  0  0  0  0  0  0  0  0  0  0  0
    1.2617    0.7957    2.2500 C   0  0  0  0  0  0  0  0  0  0  0  0
    0.7965    0.9071    3.4560 N   0  0  0  0  0  0  0  0  0  0  0  0
   -0.4465    0.4432    3.4174 N   0  0  0  0  0  0  0  0  0  0  0  0
   -0.7475    0.0491    2.1889 C   0  0  0  0  0  0  0  0  0  0  0  0
   -1.2559    0.4153    4.5999 C   0  0  0  0  0  0  0  0  0  0  0  0
   -0.2714    0.5344   -0.5391 H   0  0  0  0  0  0  0  0  0  0  0  0
    1.4692    0.2877   -0.2917 H   0  0  0  0  0  0  0  0  0  0  0  0
   -0.6528   -1.8869    0.1051 H   0  0  0  0  0  0  0  0  0  0  0  0
    0.2495   -1.6186   -1.3799 H   0  0  0  0  0  0  0  0  0  0  0  0
    1.3185   -3.3984   -0.2774 H   0  0  0  0  0  0  0  0  0  0  0  0
    2.3935   -2.0202   -0.1103 H   0  0  0  0  0  0  0  0  0  0  0  0
    0.4576   -2.9353    2.0765 H   0  0  0  0  0  0  0  0  0  0  0  0
    2.1269   -3.4669    1.9566 H   0  0  0  0  0  0  0  0  0  0  0  0
    1.7891   -1.7787    2.2658 H   0  0  0  0  0  0  0  0  0  0  0  0
    2.2494    1.0885    1.9555 H   0  0  0  0  0  0  0  0  0  0  0  0
   -1.6849   -0.3591    1.8664 H   0  0  0  0  0  0  0  0  0  0  0  0
   -2.2346   -0.0003    4.3746 H   0  0  0  0  0  0  0  0  0  0  0  0
   -0.7618   -0.1885    5.3622 H   0  0  0  0  0  0  0  0  0  0  0  0
   -1.3624    1.4273    4.9919 H   0  0  0  0  0  0  0  0  0  0  0  0
  1  2  1  0  0  0  0
  2  3  1  0  0  0  0
  3  4  1  0  0  0  0
  1  5  1  0  0  0  0
  5  6  4  0  0  0  0
  6  7  2  0  0  0  0
  7  8  4  0  0  0  0
  5  9  4  0  0  0  0
  8  9  4  0  0  0  0
  8 10  1  0  0  0  0
  1 11  1  0  0  0  0
  1 12  1  0  0  0  0
  2 13  1  0  0  0  0
  2 14  1  0  0  0  0
  3 15  1  0  0  0  0
  3 16  1  0  0  0  0
  4 17  1  0  0  0  0
  4 18  1  0  0  0  0
  4 19  1  0  0  0  0
  6 20  1  0  0  0  0
  9 21  1  0  0  0  0
 10 22  1  0  0  0  0
 10 23  1  0  0  0  0
 10 24  1  0  0  0  0
M  CHG  1   1   1
M  END
