72

C          1.45748        0.32223       -0.73545
C          1.46046       -1.16495       -1.05722
C          1.62297       -2.05504        0.17872
C          0.53653       -1.90109        1.24910
C         -0.89703       -2.15866        0.77412
C         -1.16667       -3.56418        0.22580
C         -0.92128       -4.71585        1.20830
C         -1.69221       -4.63438        2.53142
C         -3.21490       -4.52796        2.40061
C         -3.90280       -5.70935        1.70669
C         -3.72997       -7.08198        2.37694
C         -4.20006       -7.19532        3.83446
N         -5.65328       -7.66907        4.03837
C         -5.91729       -9.11376        3.55454
C         -5.26465      -10.34081        4.15972
C         -5.67545      -11.57984        3.61918
C         -5.15558      -12.79272        4.07918
C         -4.21617      -12.80300        5.10808
C         -3.78055      -11.59111        5.64641
C         -4.30306      -10.37519        5.17700
C         -3.65987      -14.10666        5.54631
O         -3.50916      -14.99257        4.71049
C         -3.27561      -14.35406        6.95748
C         -2.16600      -15.16751        7.21138
C         -1.77935      -15.42871        8.52613
C         -2.50697      -14.89001        9.58725
C         -3.62824      -14.09799        9.33801
C         -4.01890      -13.83258        8.02388
C         -6.03424       -7.52400        5.51603
C         -6.62223       -6.75927        3.26862
H          0.57794        0.60417       -0.14892
H          1.44002        0.90877       -1.65977
H          2.35320        0.60350       -0.17264
H          0.54365       -1.42461       -1.59765
H          2.29114       -1.37101       -1.74347
H          1.67378       -3.10154       -0.14477
H          2.59336       -1.83680        0.64293
H          0.77215       -2.57171        2.08406
H          0.58397       -0.88789        1.66652
H         -1.57854       -1.95615        1.60868
H         -1.16162       -1.42789        0.00069
H         -2.20565       -3.60440       -0.12294
H         -0.55316       -3.73176       -0.66752
H         -1.16595       -5.65872        0.70434
H          0.15011       -4.77398        1.43529
H         -1.43657       -5.50987        3.13993
H         -1.33450       -3.76890        3.10203
H         -3.64122       -4.38691        3.39985
H         -3.46938       -3.61312        1.85252
H         -4.96526       -5.46962        1.60930
H         -3.53108       -5.78482        0.67756
H         -4.20020       -7.84051        1.74479
H         -2.65955       -7.32330        2.35793
H         -3.55794       -7.90925        4.35086
H         -4.10403       -6.24517        4.36757
H         -7.00219       -9.25111        3.66593
H         -5.70699       -9.11760        2.47925
H         -6.41043      -11.62026        2.81402
H         -5.48106      -13.73040        3.62913
H         -3.01218      -11.57348        6.41777
H         -3.90635       -9.48176        5.64172
H         -1.60417      -15.60284        6.38697
H         -0.91701      -16.06180        8.72252
H         -2.20807      -15.10354       10.61134
H         -4.20494      -13.70283       10.17113
H         -4.91509      -13.24399        7.85053
H         -6.05715       -6.45699        5.76061
H         -7.02241       -7.96787        5.66931
H         -5.28982       -8.01455        6.14112
H         -6.39396       -5.71910        3.51828
H         -6.50903       -6.94765        2.19827
H         -7.64512       -7.00354        3.57341
