 xtb: 6.7.1 (edcfbbe)
          12202407083D

 35 35  0     0  0            999 V2000
    1.1254    0.2347    0.1176 C   0  0  0  0  0  0  0  0  0  0  0  0
    0.2857    0.1613   -1.0158 O   0  0  0  0  0  0  0  0  0  0  0  0
    0.8289    0.2145   -2.2473 C   0  0  0  0  0  0  0  0  0  0  0  0
   -0.0828    0.1521   -3.3047 C   0  0  0  0  0  0  0  0  0  0  0  0
    0.3659    0.1831   -4.6160 C   0  0  0  0  0  0  0  0  0  0  0  0
    1.7227    0.2898   -4.8797 C   0  0  0  0  0  0  0  0  0  0  0  0
    2.6412    0.3644   -3.8293 C   0  0  0  0  0  0  0  0  0  0  0  0
    2.1917    0.3161   -2.5125 C   0  0  0  0  0  0  0  0  0  0  0  0
    3.9316    0.4727   -4.1995 O   0  0  0  0  0  0  0  0  0  0  0  0
    4.9294    0.6084   -3.2089 C   0  0  0  0  0  0  0  0  0  0  0  0
   -0.6173    0.1236   -5.7557 C   0  0  0  0  0  0  0  0  0  0  0  0
   -0.9488   -1.2736   -6.2021 N   0  0  0  0  0  0  0  0  0  0  0  0
   -1.5938   -2.0172   -5.1070 C   0  0  0  0  0  0  0  0  0  0  0  0
   -1.8724   -1.1981   -7.3473 C   0  0  0  0  0  0  0  0  0  0  0  0
    0.2763   -1.9803   -6.6122 C   0  0  0  0  0  0  0  0  0  0  0  0
    0.4596    0.1838    0.9766 H   0  0  0  0  0  0  0  0  0  0  0  0
    1.6785    1.1772    0.1451 H   0  0  0  0  0  0  0  0  0  0  0  0
    1.8237   -0.6064    0.1516 H   0  0  0  0  0  0  0  0  0  0  0  0
   -1.1316    0.1124   -3.0599 H   0  0  0  0  0  0  0  0  0  0  0  0
    2.1051    0.3508   -5.8854 H   0  0  0  0  0  0  0  0  0  0  0  0
    2.8957    0.3734   -1.7006 H   0  0  0  0  0  0  0  0  0  0  0  0
    4.7646    1.4986   -2.5961 H   0  0  0  0  0  0  0  0  0  0  0  0
    4.9816   -0.2776   -2.5699 H   0  0  0  0  0  0  0  0  0  0  0  0
    5.8661    0.7147   -3.7524 H   0  0  0  0  0  0  0  0  0  0  0  0
   -1.5523    0.6036   -5.4608 H   0  0  0  0  0  0  0  0  0  0  0  0
   -0.2075    0.6538   -6.6173 H   0  0  0  0  0  0  0  0  0  0  0  0
   -2.5166   -1.5223   -4.8104 H   0  0  0  0  0  0  0  0  0  0  0  0
   -1.8279   -3.0300   -5.4295 H   0  0  0  0  0  0  0  0  0  0  0  0
   -0.9278   -2.0613   -4.2472 H   0  0  0  0  0  0  0  0  0  0  0  0
   -1.4061   -0.6679   -8.1758 H   0  0  0  0  0  0  0  0  0  0  0  0
   -2.1380   -2.2000   -7.6810 H   0  0  0  0  0  0  0  0  0  0  0  0
   -2.7829   -0.6721   -7.0657 H   0  0  0  0  0  0  0  0  0  0  0  0
    0.7571   -1.4525   -7.4335 H   0  0  0  0  0  0  0  0  0  0  0  0
    0.9717   -2.0318   -5.7764 H   0  0  0  0  0  0  0  0  0  0  0  0
    0.0336   -2.9900   -6.9381 H   0  0  0  0  0  0  0  0  0  0  0  0
  1  2  1  0  0  0  0
  2  3  1  0  0  0  0
  3  4  4  0  0  0  0
  4  5  4  0  0  0  0
  5  6  4  0  0  0  0
  6  7  4  0  0  0  0
  3  8  4  0  0  0  0
  7  8  4  0  0  0  0
  7  9  1  0  0  0  0
  9 10  1  0  0  0  0
  5 11  1  0  0  0  0
 11 12  1  0  0  0  0
 12 13  1  0  0  0  0
 12 14  1  0  0  0  0
 12 15  1  0  0  0  0
  1 16  1  0  0  0  0
  1 17  1  0  0  0  0
  1 18  1  0  0  0  0
  4 19  1  0  0  0  0
  6 20  1  0  0  0  0
  8 21  1  0  0  0  0
 10 22  1  0  0  0  0
 10 23  1  0  0  0  0
 10 24  1  0  0  0  0
 11 25  1  0  0  0  0
 11 26  1  0  0  0  0
 13 27  1  0  0  0  0
 13 28  1  0  0  0  0
 13 29  1  0  0  0  0
 14 30  1  0  0  0  0
 14 31  1  0  0  0  0
 14 32  1  0  0  0  0
 15 33  1  0  0  0  0
 15 34  1  0  0  0  0
 15 35  1  0  0  0  0
M  CHG  1   1   1
M  END
