35

C          1.15950        0.23469        0.15088
O          0.29427        0.12826       -0.97517
C          0.86774        0.21205       -2.21394
C         -0.04721        0.15186       -3.27031
C          0.38169        0.20015       -4.60222
C          1.75365        0.33676       -4.85271
C          2.67709        0.40665       -3.80509
C          2.23209        0.33713       -2.48377
O          3.97586        0.53028       -4.21454
C          4.96167        0.71522       -3.20373
C         -0.59923        0.10781       -5.74087
N         -0.97611       -1.31214       -6.21464
C         -1.74271       -2.06247       -5.13501
C         -1.86975       -1.17736       -7.44384
C          0.26263       -2.11129       -6.59596
H          0.54333        0.17035        1.05278
H          1.67218        1.20211        0.16398
H          1.87513       -0.59366        0.17596
H         -1.10563        0.07140       -3.02796
H          2.12974        0.40096       -5.87294
H          2.94443        0.38036       -1.66949
H          4.75842        1.61403       -2.61213
H          5.03785       -0.17080       -2.56519
H          5.92698        0.85339       -3.70009
H         -1.53575        0.61361       -5.47214
H         -0.19606        0.63373       -6.61626
H         -2.59711       -1.45246       -4.82745
H         -2.08795       -3.01262       -5.55450
H         -1.07679       -2.25629       -4.29070
H         -1.30704       -0.66094       -8.22736
H         -2.15455       -2.17894       -7.78010
H         -2.75775       -0.60212       -7.16550
H          0.83432       -1.53681       -7.33045
H          0.85695       -2.30183       -5.69836
H         -0.06183       -3.06297       -7.02837
