 xtb: 6.7.1 (edcfbbe)
          12202407093D

 26 25  0     0  0            999 V2000
    1.1347   -1.7528   -1.5540 O   0  0  0  0  0  0  0  0  0  0  0  0
    0.5845   -1.6537   -0.3594 C   0  0  0  0  0  0  0  0  0  0  0  0
    1.1322   -1.9129    0.6775 O   0  0  0  0  0  0  0  0  0  0  0  0
   -0.8579   -1.1631   -0.4538 C   0  0  0  0  0  0  0  0  0  0  0  0
   -1.5048   -1.0138    0.9193 C   0  0  0  0  0  0  0  0  0  0  0  0
   -1.3523    0.3186    1.5846 N   0  0  0  0  0  0  0  0  0  0  0  0
   -2.0945    1.3814    0.8680 C   0  0  0  0  0  0  0  0  0  0  0  0
   -3.6105    1.1683    0.7353 C   0  0  0  0  0  0  0  0  0  0  0  0
   -4.2089    0.2082    1.1263 O   0  0  0  0  0  0  0  0  0  0  0  0
   -4.1376    2.2038    0.1188 O   0  0  0  0  0  0  0  0  0  0  0  0
   -1.8690    0.1921    2.9649 C   0  0  0  0  0  0  0  0  0  0  0  0
    0.0692    0.7115    1.6577 C   0  0  0  0  0  0  0  0  0  0  0  0
    2.0382   -2.1088   -1.5171 H   0  0  0  0  0  0  0  0  0  0  0  0
   -0.8870   -0.2656   -1.0700 H   0  0  0  0  0  0  0  0  0  0  0  0
   -1.4006   -1.9304   -1.0110 H   0  0  0  0  0  0  0  0  0  0  0  0
   -2.5729   -1.2234    0.8594 H   0  0  0  0  0  0  0  0  0  0  0  0
   -1.0384   -1.7537    1.5764 H   0  0  0  0  0  0  0  0  0  0  0  0
   -1.9496    2.3354    1.3830 H   0  0  0  0  0  0  0  0  0  0  0  0
   -1.7003    1.5003   -0.1441 H   0  0  0  0  0  0  0  0  0  0  0  0
   -5.1005    2.1228    0.0048 H   0  0  0  0  0  0  0  0  0  0  0  0
   -1.2570   -0.5135    3.5230 H   0  0  0  0  0  0  0  0  0  0  0  0
   -1.8354    1.1567    3.4682 H   0  0  0  0  0  0  0  0  0  0  0  0
   -2.8970   -0.1653    2.9514 H   0  0  0  0  0  0  0  0  0  0  0  0
    0.6582   -0.1091    2.0652 H   0  0  0  0  0  0  0  0  0  0  0  0
    0.4570    0.9499    0.6699 H   0  0  0  0  0  0  0  0  0  0  0  0
    0.1840    1.5854    2.2962 H   0  0  0  0  0  0  0  0  0  0  0  0
  1  2  1  0  0  0  0
  2  3  2  0  0  0  0
  2  4  1  0  0  0  0
  4  5  1  0  0  0  0
  5  6  1  0  0  0  0
  6  7  1  0  0  0  0
  7  8  1  0  0  0  0
  8  9  2  0  0  0  0
  8 10  1  0  0  0  0
  6 11  1  0  0  0  0
  6 12  1  0  0  0  0
  1 13  1  0  0  0  0
  4 14  1  0  0  0  0
  4 15  1  0  0  0  0
  5 16  1  0  0  0  0
  5 17  1  0  0  0  0
  7 18  1  0  0  0  0
  7 19  1  0  0  0  0
 10 20  1  0  0  0  0
 11 21  1  0  0  0  0
 11 22  1  0  0  0  0
 11 23  1  0  0  0  0
 12 24  1  0  0  0  0
 12 25  1  0  0  0  0
 12 26  1  0  0  0  0
M  CHG  1   1   1
M  END
