30

C          1.37639       -0.42997        0.02710
C          0.48819       -0.43848       -1.21961
C          0.39486       -1.78599       -1.94303
C         -0.55356       -2.82478       -1.34192
C         -2.00228       -2.36974       -1.26863
N          0.77342       -1.06512        1.20083
C         -0.22826       -0.48693        1.84070
S         -0.72234       -1.40321        3.19236
C          0.48770       -2.59615        2.90210
C          1.22633       -2.24806        1.77102
C          2.27440       -3.08804        1.34365
C          2.54710       -4.25533        2.06798
C          1.80018       -4.58539        3.19434
C          0.75928       -3.76327        3.63202
H          1.58266        0.61369        0.30267
H          2.35201       -0.86945       -0.19881
H         -0.50732       -0.04543       -0.99188
H          0.93475        0.27174       -1.92828
H          0.06570       -1.59087       -2.97218
H          1.39675       -2.22496       -2.02492
H         -0.50830       -3.72524       -1.96711
H         -0.22085       -3.13123       -0.34918
H         -2.35820       -2.02918       -2.24590
H         -2.63911       -3.20049       -0.94751
H         -2.13373       -1.55811       -0.54789
H         -0.69153        0.44985        1.55398
H          2.87604       -2.87684        0.46481
H          3.35107       -4.91791        1.74678
H          2.02768       -5.49947        3.74361
H          0.17881       -4.02842        4.51306
