94

C          1.08779       -0.38423        0.76510
C          0.59437        0.93139        1.34894
C          1.16562        2.16985        0.65172
C          0.92656        2.25007       -0.85891
C         -0.54136        2.22447       -1.29205
C         -1.37202        3.44359       -0.87640
C         -0.90467        4.79284       -1.43608
C         -0.70375        4.86188       -2.95481
C         -1.88744        4.40051       -3.81095
C         -3.15871        5.24406       -3.69392
C         -3.01787        6.63327       -4.32577
C         -4.36506        7.35366       -4.43745
O         -4.81335        7.77744       -3.14246
C         -5.85580        7.12281       -2.54491
C         -6.94697        6.67485       -3.30646
C         -8.01478        6.00513       -2.71230
C         -8.02401        5.79804       -1.34161
C         -6.97501        6.28466       -0.55977
C         -5.87783        6.96810       -1.13119
N         -4.79388        7.51441       -0.13810
C         -5.51361        8.51484        0.79107
C         -4.64107        9.54139        1.53396
C         -3.76446        9.03056        2.68630
C         -2.24789        8.97547        2.44172
C         -1.59157       10.25346        1.90521
C         -1.64146       11.45626        2.84986
C         -0.85027       11.28809        4.15177
C          0.63929       10.96655        3.97842
C          1.44821       12.00507        3.19334
C          1.48069       13.40969        3.80501
C          2.00844       13.49068        5.23984
C          3.43184       12.97702        5.39370
C         -4.22992        6.30401        0.60085
C         -3.65343        8.19133       -0.87877
H          0.70991       -0.53914       -0.24998
H          0.73841       -1.22211        1.37702
H          2.18140       -0.41789        0.73661
H         -0.50062        0.95314        1.32522
H          0.88008        0.97090        2.40715
H          0.75862        3.06506        1.13611
H          2.24898        2.19799        0.82553
H          1.41002        3.15621       -1.24157
H          1.44442        1.41556       -1.34697
H         -0.57218        2.11641       -2.38181
H         -1.02732        1.32362       -0.90028
H         -2.41030        3.27360       -1.18688
H         -1.40091        3.51158        0.21781
H         -1.62645        5.56010       -1.13448
H          0.03867        5.07347       -0.95143
H         -0.43348        5.88987       -3.22374
H          0.16710        4.25060       -3.22146
H         -1.56797        4.38478       -4.86060
H         -2.13931        3.36363       -3.56382
H         -3.96348        4.70508       -4.20964
H         -3.46325        5.32485       -2.64640
H         -2.32248        7.23890       -3.73445
H         -2.59508        6.53260       -5.33223
H         -4.22597        8.26662       -5.02731
H         -5.07183        6.72615       -4.98599
H         -7.01094        6.86066       -4.37598
H         -8.84594        5.65626       -3.32359
H         -8.86013        5.27639       -0.87875
H         -7.05165        6.12131        0.51151
H         -6.20813        9.08026        0.15532
H         -6.10474        7.93944        1.51286
H         -4.09099       10.16379        0.82599
H         -5.35853       10.23746        1.99353
H         -3.92711        9.69313        3.54681
H         -4.11102        8.04396        3.01539
H         -1.76178        8.68431        3.38064
H         -2.01652        8.16397        1.74764
H         -0.54910       10.02600        1.65464
H         -2.04663       10.54072        0.95214
H         -1.26459       12.33449        2.31217
H         -2.68415       11.68703        3.09734
H         -0.95794       12.20431        4.74410
H         -1.30796       10.49347        4.75260
H          1.08367       10.83200        4.97131
H          0.74800        9.99505        3.48216
H          2.47513       11.63556        3.08557
H          1.05844       12.07985        2.17119
H          2.10190       14.04876        3.16453
H          0.47435       13.84384        3.77668
H          1.98039       14.53951        5.55906
H          1.34701       12.94443        5.92101
H          4.11389       13.50186        4.71746
H          3.78047       13.13764        6.41888
H          3.49712       11.90464        5.18753
H         -3.94294        5.54516       -0.13395
H         -3.35105        6.60921        1.16709
H         -4.97939        5.90940        1.29202
H         -3.17321        7.46878       -1.53949
H         -4.02513        9.08574       -1.38656
H         -2.89514        8.49496       -0.15985
