20

C          1.05667       -0.06363       -0.05234
C         -0.24718       -0.06363       -0.05234
C         -1.76718       -0.06363       -0.05234
N         -2.21779       -1.15987       -0.91959
C         -2.93240       -1.03571       -2.09885
C         -3.04648       -2.29273       -2.62636
N         -2.39829       -3.15424       -1.75651
C         -1.90450       -2.45206       -0.72392
C         -2.23443       -4.60133       -1.92808
C         -0.75823       -4.96355       -1.92972
C          0.50806       -5.27427       -1.93114
H          2.12409       -0.04984       -0.05144
H         -2.15225       -0.23837        0.95679
H         -2.14894        0.89062       -0.42711
H         -3.25610       -0.06105       -2.42245
H         -3.49822       -2.68460       -3.52189
H         -1.33514       -2.85269        0.10821
H         -2.74460       -5.10287       -1.09947
H         -2.69539       -4.91576       -2.86971
H          1.54223       -5.53881       -1.94162
