 xtb: 6.7.1 (edcfbbe)
          12202407093D

 17 16  0     0  0            999 V2000
    0.9333    0.2318   -0.1815 Cl  0  0  0  0  0  0  0  0  0  0  0  0
    2.7109   -0.0933   -0.1997 C   0  0  0  0  0  0  0  0  0  0  0  0
    3.4564    1.2161   -0.4334 C   0  0  0  0  0  0  0  0  0  0  0  0
    2.9287    2.2826    0.4516 N   0  0  0  0  0  0  0  0  0  0  0  0
    3.4117    2.1569    1.8361 C   0  0  0  0  0  0  0  0  0  0  0  0
    3.1930    3.6288   -0.0789 C   0  0  0  0  0  0  0  0  0  0  0  0
    2.9656   -0.5628    0.7493 H   0  0  0  0  0  0  0  0  0  0  0  0
    2.9126   -0.7934   -1.0091 H   0  0  0  0  0  0  0  0  0  0  0  0
    4.5250    1.0804   -0.2547 H   0  0  0  0  0  0  0  0  0  0  0  0
    3.3084    1.5296   -1.4685 H   0  0  0  0  0  0  0  0  0  0  0  0
    1.9025    2.0978    0.4476 H   0  0  0  0  0  0  0  0  0  0  0  0
    4.4903    2.3029    1.8668 H   0  0  0  0  0  0  0  0  0  0  0  0
    2.9395    2.9085    2.4656 H   0  0  0  0  0  0  0  0  0  0  0  0
    3.1717    1.1754    2.2357 H   0  0  0  0  0  0  0  0  0  0  0  0
    2.7552    3.7413   -1.0684 H   0  0  0  0  0  0  0  0  0  0  0  0
    2.7614    4.3815    0.5779 H   0  0  0  0  0  0  0  0  0  0  0  0
    4.2671    3.7964   -0.1447 H   0  0  0  0  0  0  0  0  0  0  0  0
  1  2  1  0  0  0  0
  2  3  1  0  0  0  0
  3  4  1  0  0  0  0
  4  5  1  0  0  0  0
  4  6  1  0  0  0  0
  2  7  1  0  0  0  0
  2  8  1  0  0  0  0
  3  9  1  0  0  0  0
  3 10  1  0  0  0  0
  4 11  1  0  0  0  0
  5 12  1  0  0  0  0
  5 13  1  0  0  0  0
  5 14  1  0  0  0  0
  6 15  1  0  0  0  0
  6 16  1  0  0  0  0
  6 17  1  0  0  0  0
M  CHG  1   1   1
M  END
