 xtb: 6.7.1 (edcfbbe)
          12202407093D

 27 27  0     0  0            999 V2000
    1.1908    0.6697   -0.0990 F   0  0  0  0  0  0  0  0  0  0  0  0
    2.4272    0.0871    0.0840 C   0  0  0  0  0  0  0  0  0  0  0  0
    2.8475   -0.6530   -1.1859 C   0  0  0  0  0  0  0  0  0  0  0  0
    2.4047    0.0850   -2.4555 C   0  0  0  0  0  0  0  0  0  0  0  0
    2.8392    1.4618   -2.4408 N   0  0  0  0  0  0  0  0  0  0  0  0
    4.1345    1.7482   -2.3837 N   0  0  0  0  0  0  0  0  0  0  0  0
    4.2176    3.0419   -2.3573 C   0  0  0  0  0  0  0  0  0  0  0  0
    2.9737    3.6082   -2.3950 N   0  0  0  0  0  0  0  0  0  0  0  0
    2.1063    2.5756   -2.4473 C   0  0  0  0  0  0  0  0  0  0  0  0
    0.6426    2.6656   -2.4948 C   0  0  0  0  0  0  0  0  0  0  0  0
    2.6397    5.0111   -2.3829 C   0  0  0  0  0  0  0  0  0  0  0  0
    5.5130    3.8097   -2.2852 C   0  0  0  0  0  0  0  0  0  0  0  0
    5.6277    4.6326   -3.3325 F   0  0  0  0  0  0  0  0  0  0  0  0
    5.5385    4.5705   -1.1843 F   0  0  0  0  0  0  0  0  0  0  0  0
    6.5530    3.0015   -2.2636 F   0  0  0  0  0  0  0  0  0  0  0  0
    3.1143    0.9029    0.3311 H   0  0  0  0  0  0  0  0  0  0  0  0
    2.3429   -0.5897    0.9360 H   0  0  0  0  0  0  0  0  0  0  0  0
    3.9300   -0.7721   -1.1744 H   0  0  0  0  0  0  0  0  0  0  0  0
    2.3890   -1.6411   -1.2143 H   0  0  0  0  0  0  0  0  0  0  0  0
    2.8479   -0.4034   -3.3261 H   0  0  0  0  0  0  0  0  0  0  0  0
    1.3178    0.0722   -2.5386 H   0  0  0  0  0  0  0  0  0  0  0  0
    0.2554    2.1721   -3.3863 H   0  0  0  0  0  0  0  0  0  0  0  0
    0.2091    2.1640   -1.6272 H   0  0  0  0  0  0  0  0  0  0  0  0
    0.3133    3.7000   -2.4985 H   0  0  0  0  0  0  0  0  0  0  0  0
    2.1042    5.2743   -3.2960 H   0  0  0  0  0  0  0  0  0  0  0  0
    2.0149    5.2373   -1.5180 H   0  0  0  0  0  0  0  0  0  0  0  0
    3.5441    5.6116   -2.3255 H   0  0  0  0  0  0  0  0  0  0  0  0
  1  2  1  0  0  0  0
  2  3  1  0  0  0  0
  3  4  1  0  0  0  0
  4  5  1  0  0  0  0
  5  6  4  0  0  0  0
  6  7  2  0  0  0  0
  7  8  4  0  0  0  0
  5  9  4  0  0  0  0
  8  9  4  0  0  0  0
  9 10  1  0  0  0  0
  8 11  1  0  0  0  0
  7 12  1  0  0  0  0
 12 13  1  0  0  0  0
 12 14  1  0  0  0  0
 12 15  1  0  0  0  0
  2 16  1  0  0  0  0
  2 17  1  0  0  0  0
  3 18  1  0  0  0  0
  3 19  1  0  0  0  0
  4 20  1  0  0  0  0
  4 21  1  0  0  0  0
 10 22  1  0  0  0  0
 10 23  1  0  0  0  0
 10 24  1  0  0  0  0
 11 25  1  0  0  0  0
 11 26  1  0  0  0  0
 11 27  1  0  0  0  0
M  CHG  1   1   1
M  END
