45

C         -0.30228        1.61169       -1.07415
N          0.19613        0.44518       -1.91585
C          1.72758        0.54706       -1.96105
C          2.33205        1.61706       -2.64746
C          3.72306        1.74699       -2.70926
C          4.53698        0.81304       -2.08047
C          3.96096       -0.23918       -1.37754
C          2.56774       -0.36689       -1.30727
C         -0.25408       -0.90730       -1.29530
C         -1.70843       -1.30858       -1.43427
C         -2.73666       -0.66615       -0.72614
C         -4.07307       -1.04039       -0.90500
C         -4.39819       -2.09602       -1.75215
C         -3.37900       -2.79447       -2.39045
C         -2.04882       -2.38923       -2.26741
O         -3.68576       -3.87011       -3.18368
C         -3.63814       -5.12216       -2.60011
C         -3.59976       -6.19770       -3.49195
C         -3.57189       -7.51005       -3.01482
C         -3.59065       -7.75374       -1.64275
C         -3.63773       -6.68653       -0.74799
C         -3.66220       -5.37270       -1.22346
C         -0.34327        0.53442       -3.34428
H          0.00419        1.45315       -0.03530
H         -1.38930        1.66657       -1.15520
H          0.11331        2.54940       -1.45484
H          1.74857        2.38768       -3.14298
H          4.17285        2.58040       -3.24668
H          5.62044        0.90966       -2.13083
H          4.60183       -0.96440       -0.87726
H          2.19976       -1.20294       -0.72321
H          0.34792       -1.68311       -1.78541
H          0.00854       -0.88696       -0.22995
H         -2.52541        0.12793       -0.01454
H         -4.86485       -0.52097       -0.36810
H         -5.43398       -2.40027       -1.88309
H         -1.28862       -2.94880       -2.81008
H         -3.59656       -6.01760       -4.56389
H         -3.54487       -8.34318       -3.71306
H         -3.57923       -8.77570       -1.27079
H         -3.66732       -6.87835        0.32201
H         -3.71803       -4.56814       -0.49751
H         -1.43422        0.46584       -3.31710
H         -0.08663        1.50427       -3.77814
H          0.08192       -0.28471       -3.93195
