40

C          1.03565       -0.09481       -0.05528
C          0.48022        1.28886       -0.43998
N          0.87760        1.67769       -1.92066
C          0.40006        0.69305       -3.01812
C         -1.06974        0.45958       -3.25565
C         -1.89190        1.43404       -3.84295
C         -3.24669        1.18514       -4.07599
C         -3.79447       -0.05339       -3.75797
C         -2.98497       -1.05064       -3.22413
C         -1.63145       -0.80034       -2.98485
C          0.40506        3.09452       -2.23603
C          2.41577        1.72575       -2.02568
C         -0.97875        1.48223       -0.03326
C         -1.43827        2.75695        0.35339
C         -2.76768        2.96669        0.73033
C         -3.66128        1.90212        0.75471
C         -3.22176        0.62725        0.41948
C         -1.89283        0.41877        0.04015
H          0.63872       -0.89950       -0.67978
H          0.77977       -0.33306        0.98443
H          2.12712       -0.12885       -0.11245
H          1.04607        2.00407        0.17513
H          0.83431        1.05361       -3.96113
H          0.89919       -0.26121       -2.81191
H         -1.49817        2.39820       -4.15220
H         -3.87624        1.95442       -4.51865
H         -4.84893       -0.24636       -3.94282
H         -3.41040       -2.02601       -2.99740
H         -1.02601       -1.60923       -2.57994
H          0.86640        3.78031       -1.51841
H          0.72531        3.35204       -3.25082
H         -0.68018        3.15190       -2.16631
H          2.80337        2.35097       -1.21620
H          2.81291        0.70997       -1.96065
H          2.68475        2.15572       -2.99609
H         -0.76631        3.61234        0.37835
H         -3.10738        3.96017        1.01534
H         -4.69602        2.06149        1.04941
H         -3.91499       -0.21076        0.45549
H         -1.59974       -0.60174       -0.19067
