 xtb: 6.7.1 (edcfbbe)
          12202407093D

 33 33  0     0  0            999 V2000
    1.4374   -0.1567    0.1431 C   0  0  0  0  0  0  0  0  0  0  0  0
    0.7318    0.1524   -1.1789 C   0  0  0  0  0  0  0  0  0  0  0  0
    1.0530   -0.9160   -2.2130 C   0  0  0  0  0  0  0  0  0  0  0  0
    0.8359   -2.2621   -1.9468 C   0  0  0  0  0  0  0  0  0  0  0  0
    1.1313   -3.2207   -2.8999 C   0  0  0  0  0  0  0  0  0  0  0  0
    1.6433   -2.8453   -4.1303 C   0  0  0  0  0  0  0  0  0  0  0  0
    1.8610   -1.5062   -4.4035 C   0  0  0  0  0  0  0  0  0  0  0  0
    1.5647   -0.5478   -3.4499 C   0  0  0  0  0  0  0  0  0  0  0  0
   -0.8048    0.2076   -1.1117 C   0  0  0  0  0  0  0  0  0  0  0  0
   -1.4674    1.3452   -0.3890 N   0  0  0  0  0  0  0  0  0  0  0  0
   -0.8534    2.6350   -0.7491 C   0  0  0  0  0  0  0  0  0  0  0  0
   -2.8879    1.3681   -0.7933 C   0  0  0  0  0  0  0  0  0  0  0  0
   -1.4097    1.1634    1.0726 C   0  0  0  0  0  0  0  0  0  0  0  0
    0.9250   -0.9353    0.7018 H   0  0  0  0  0  0  0  0  0  0  0  0
    1.5427    0.7255    0.7712 H   0  0  0  0  0  0  0  0  0  0  0  0
    2.4418   -0.5128   -0.0721 H   0  0  0  0  0  0  0  0  0  0  0  0
    1.1188    1.0962   -1.5711 H   0  0  0  0  0  0  0  0  0  0  0  0
    0.4471   -2.5745   -0.9890 H   0  0  0  0  0  0  0  0  0  0  0  0
    0.9631   -4.2634   -2.6791 H   0  0  0  0  0  0  0  0  0  0  0  0
    1.8752   -3.5938   -4.8714 H   0  0  0  0  0  0  0  0  0  0  0  0
    2.2645   -1.2047   -5.3576 H   0  0  0  0  0  0  0  0  0  0  0  0
    1.7453    0.4953   -3.6688 H   0  0  0  0  0  0  0  0  0  0  0  0
   -1.1603    0.2432   -2.1448 H   0  0  0  0  0  0  0  0  0  0  0  0
   -1.1699   -0.7193   -0.6651 H   0  0  0  0  0  0  0  0  0  0  0  0
   -0.8141    2.7411   -1.8318 H   0  0  0  0  0  0  0  0  0  0  0  0
   -1.4425    3.4539   -0.3395 H   0  0  0  0  0  0  0  0  0  0  0  0
    0.1548    2.7029   -0.3476 H   0  0  0  0  0  0  0  0  0  0  0  0
   -3.3519    0.4035   -0.5953 H   0  0  0  0  0  0  0  0  0  0  0  0
   -3.4249    2.1334   -0.2351 H   0  0  0  0  0  0  0  0  0  0  0  0
   -2.9779    1.5867   -1.8559 H   0  0  0  0  0  0  0  0  0  0  0  0
   -1.9107    0.2395    1.3557 H   0  0  0  0  0  0  0  0  0  0  0  0
   -0.3792    1.1203    1.4120 H   0  0  0  0  0  0  0  0  0  0  0  0
   -1.9069    1.9948    1.5702 H   0  0  0  0  0  0  0  0  0  0  0  0
  1  2  1  0  0  0  0
  2  3  1  0  0  0  0
  3  4  4  0  0  0  0
  4  5  4  0  0  0  0
  5  6  4  0  0  0  0
  6  7  4  0  0  0  0
  3  8  4  0  0  0  0
  7  8  4  0  0  0  0
  2  9  1  0  0  0  0
  9 10  1  0  0  0  0
 10 11  1  0  0  0  0
 10 12  1  0  0  0  0
 10 13  1  0  0  0  0
  1 14  1  0  0  0  0
  1 15  1  0  0  0  0
  1 16  1  0  0  0  0
  2 17  1  0  0  0  0
  4 18  1  0  0  0  0
  5 19  1  0  0  0  0
  6 20  1  0  0  0  0
  7 21  1  0  0  0  0
  8 22  1  0  0  0  0
  9 23  1  0  0  0  0
  9 24  1  0  0  0  0
 11 25  1  0  0  0  0
 11 26  1  0  0  0  0
 11 27  1  0  0  0  0
 12 28  1  0  0  0  0
 12 29  1  0  0  0  0
 12 30  1  0  0  0  0
 13 31  1  0  0  0  0
 13 32  1  0  0  0  0
 13 33  1  0  0  0  0
M  CHG  1   1   1
M  END
