 xtb: 6.7.1 (edcfbbe)
          12202407093D

  5  4  0     0  0            999 V2000
    0.9643   -0.0844    0.0400 N   0  0  0  0  0  0  0  0  0  0  0  0
    0.6210    0.8711    0.2124 H   0  0  0  0  0  0  0  0  0  0  0  0
    0.6210   -0.4129   -0.8737 H   0  0  0  0  0  0  0  0  0  0  0  0
    0.6210   -0.7115    0.7813 H   0  0  0  0  0  0  0  0  0  0  0  0
    1.9941   -0.0844    0.0400 H   0  0  0  0  0  0  0  0  0  0  0  0
  1  2  1  0  0  0  0
  1  3  1  0  0  0  0
  1  4  1  0  0  0  0
  1  5  1  0  0  0  0
M  CHG  1   1   1
M  END
