32

C          0.92528        0.01804       -0.06122
C          0.64234       -1.34815        0.54751
N          1.10758       -1.52625        2.04753
C          0.56831       -0.30827        2.90394
C         -0.95483       -0.32480        3.03520
C          1.25005       -0.12312        4.26486
C          0.55392       -2.94504        2.51828
C          1.15472       -4.10172        1.70211
C          0.76899       -3.23596        4.00315
C          2.64778       -1.51178        2.04656
H          0.26015        0.79018        0.33548
H          0.73777       -0.02362       -1.14008
H          1.96226        0.33383        0.07523
H         -0.42771       -1.57384        0.50691
H          1.17621       -2.09702       -0.04381
H          0.85055        0.58492        2.33982
H         -1.31416       -1.16135        3.63960
H         -1.29591        0.59311        3.52779
H         -1.45321       -0.36387        2.06319
H          2.33984       -0.09032        4.19106
H          0.94591        0.84252        4.68815
H          0.97447       -0.87094        5.00616
H         -0.52416       -2.91970        2.32169
H          2.23673       -4.18694        1.83966
H          0.71748       -5.05364        2.02699
H          0.93898       -4.02522        0.63442
H          0.07764       -2.66701        4.62736
H          0.54797       -4.28778        4.22189
H          1.79414       -3.05280        4.33271
H          3.01226       -2.15085        1.23806
H          2.98772       -0.48553        1.88421
H          3.01328       -1.88037        3.00591
