22

C          1.04318       -0.02822        0.10664
C          0.61581        1.32804        0.63468
N          0.98365        2.48129       -0.21041
C          1.70342        2.45221       -1.39822
C          1.80623        3.73829       -1.83720
N          1.15153        4.52922       -0.91330
C          0.65523        3.76242        0.08059
C         -0.11172        4.26180        1.26273
C          1.01612        5.98169       -0.99538
H          0.59986       -0.22764       -0.87404
H          0.72000       -0.81911        0.79079
H          2.13186       -0.08962        0.01143
H         -0.47418        1.34249        0.74741
H          1.06622        1.49082        1.62031
H          2.05964        1.51789       -1.79673
H          2.26557        4.19509       -2.69716
H          0.50829        5.01238        1.75500
H         -1.03780        4.69475        0.88205
H         -0.31854        3.43324        1.93795
H         -0.04561        6.24188       -0.99157
H          1.51628        6.43454       -0.13534
H          1.47388        6.35393       -1.91589
