13

N          0.89669        0.10776        0.37754
C          0.52008       -1.32194        0.34742
C          0.86288       -1.95858        1.70362
N          0.55411       -0.93597        2.74309
H          0.39368        0.58378       -0.38518
H          1.87627        0.19696        0.07432
H         -0.56180       -1.38668        0.18572
H          1.01589       -1.84459       -0.47617
H          0.27901       -2.85601        1.92136
H          1.93426       -2.16496        1.78307
H         -0.44775       -0.88470        2.95452
H          1.09130       -1.04481        3.60820
H          0.79682       -0.02448        2.30441
