44

C          1.26580       -0.75817       -0.27578
C          0.70251       -0.02849       -1.31931
C         -0.67550       -0.09477       -1.51298
C         -1.45792       -0.89899       -0.68024
C         -0.86747       -1.64644        0.34395
C          0.51019       -1.58219        0.54940
N          2.70965       -0.69073       -0.08349
N          3.35111       -0.32237        1.07056
C          4.76267       -0.41176        0.85904
C          5.01035       -0.83989       -0.49524
C          3.69792       -1.00785       -1.07136
C          3.44537       -1.50678       -2.43103
C          5.80687       -0.11995        1.85016
C          2.69808        0.16468        2.30366
C          2.63212        1.69151        2.38301
C          1.54066        2.34310        1.52753
C          0.10167        2.02262        1.95281
C         -0.34034        2.65737        3.27411
C         -0.57815        4.15573        3.16320
H          1.30612        0.61291       -1.95247
H         -1.14671        0.48090       -2.30804
H         -2.53532       -0.94901       -0.83513
H         -1.48839       -2.28218        0.97267
H          0.97320       -2.18867        1.32012
H          5.96656       -1.01255       -0.97009
H          2.63671       -2.24261       -2.41942
H          3.17122       -0.67599       -3.08607
H          4.33907       -1.99073       -2.83627
H          5.74188        0.92507        2.16292
H          5.67847       -0.76583        2.72282
H          6.80195       -0.29628        1.43135
H          1.72209       -0.29683        2.43744
H          3.30696       -0.20062        3.14005
H          2.49197        1.98239        3.42977
H          3.59785        2.11041        2.07673
H          1.68952        3.42879        1.54139
H          1.68077        2.04188        0.48475
H         -0.57863        2.35038        1.15690
H         -0.03157        0.94073        2.03455
H         -1.28096        2.18643        3.58517
H          0.38484        2.45537        4.06867
H         -1.33113        4.37501        2.39902
H         -0.94408        4.54983        4.11675
H          0.33910        4.69336        2.90838
