38

C          0.84132       -0.05752        0.21330
N          0.43495        1.33947        0.31806
C          1.28239        2.43304        0.40007
C          0.48849        3.54413        0.40547
N         -0.81878        3.09587        0.29328
C         -0.84238        1.75285        0.35145
C         -2.00991        3.93971        0.10802
C         -2.86416        3.46456       -1.05700
O         -3.89755        2.82498       -0.88811
C         -2.39094        3.73465       -2.43458
C         -3.24908        4.34949       -3.34767
C         -2.81904        4.57145       -4.66284
C         -1.54313        4.16317       -5.08688
C         -0.70506        3.53436       -4.15514
C         -1.12348        3.31676       -2.84367
C         -1.08097        4.36053       -6.46783
C         -1.03490        5.63915       -7.04321
C         -0.54578        5.82331       -8.33935
C         -0.09935        4.73160       -9.08086
C         -0.14554        3.45391       -8.53117
C         -0.63335        3.27073       -7.23590
H          0.42938       -0.47394       -0.71036
H          0.45598       -0.60701        1.07512
H          1.93181       -0.13261        0.18616
H          2.34800        2.27907        0.42009
H          0.68760        4.60235        0.42760
H         -1.72502        1.11991        0.34558
H         -2.60247        3.89203        1.02839
H         -1.71661        4.98229       -0.05014
H         -4.25452        4.64744       -3.05590
H         -3.50047        5.04345       -5.37036
H          0.28635        3.19979       -4.45868
H         -0.45041        2.78197       -2.18765
H         -1.36274        6.50913       -6.47842
H         -0.50851        6.82120       -8.76933
H          0.28275        4.87666      -10.08837
H          0.19724        2.59972       -9.10985
H         -0.66594        2.26190       -6.82922
