 xtb: 6.7.1 (edcfbbe)
          12202407093D

 38 40  0     0  0            999 V2000
   -1.2833    0.7109    2.9825 C   0  0  0  0  0  0  0  0  0  0  0  0
   -0.4421    1.1843    1.9173 N   0  0  0  0  0  0  0  0  0  0  0  0
    0.7404    0.6217    1.5381 C   0  0  0  0  0  0  0  0  0  0  0  0
    1.2220    1.3519    0.4970 C   0  0  0  0  0  0  0  0  0  0  0  0
    0.3347    2.3614    0.2652 N   0  0  0  0  0  0  0  0  0  0  0  0
   -0.6741    2.2284    1.1271 C   0  0  0  0  0  0  0  0  0  0  0  0
    0.3077    3.2346   -0.8681 C   0  0  0  0  0  0  0  0  0  0  0  0
   -0.9610    2.8801   -1.7089 C   0  0  0  0  0  0  0  0  0  0  0  0
   -1.8023    2.1795   -1.1872 O   0  0  0  0  0  0  0  0  0  0  0  0
   -1.0384    3.4229   -3.0500 C   0  0  0  0  0  0  0  0  0  0  0  0
   -2.1237    3.0275   -3.8488 C   0  0  0  0  0  0  0  0  0  0  0  0
   -2.2558    3.4881   -5.1367 C   0  0  0  0  0  0  0  0  0  0  0  0
   -1.3109    4.3630   -5.6832 C   0  0  0  0  0  0  0  0  0  0  0  0
   -0.2390    4.7701   -4.8793 C   0  0  0  0  0  0  0  0  0  0  0  0
   -0.0999    4.3142   -3.5893 C   0  0  0  0  0  0  0  0  0  0  0  0
   -1.4342    4.8381   -7.0612 C   0  0  0  0  0  0  0  0  0  0  0  0
   -2.6852    5.1415   -7.6011 C   0  0  0  0  0  0  0  0  0  0  0  0
   -2.7962    5.5893   -8.9034 C   0  0  0  0  0  0  0  0  0  0  0  0
   -1.6652    5.7274   -9.6921 C   0  0  0  0  0  0  0  0  0  0  0  0
   -0.4188    5.4230   -9.1687 C   0  0  0  0  0  0  0  0  0  0  0  0
   -0.3011    4.9890   -7.8624 C   0  0  0  0  0  0  0  0  0  0  0  0
   -2.1936    1.3041    3.0248 H   0  0  0  0  0  0  0  0  0  0  0  0
   -0.7607    0.7857    3.9371 H   0  0  0  0  0  0  0  0  0  0  0  0
   -1.5477   -0.3332    2.8120 H   0  0  0  0  0  0  0  0  0  0  0  0
    1.1481   -0.2426    2.0211 H   0  0  0  0  0  0  0  0  0  0  0  0
    2.1171    1.2268   -0.0772 H   0  0  0  0  0  0  0  0  0  0  0  0
   -1.5265    2.8753    1.1908 H   0  0  0  0  0  0  0  0  0  0  0  0
    0.2224    4.2785   -0.5538 H   0  0  0  0  0  0  0  0  0  0  0  0
    1.2171    3.0981   -1.4516 H   0  0  0  0  0  0  0  0  0  0  0  0
   -2.8458    2.3436   -3.4293 H   0  0  0  0  0  0  0  0  0  0  0  0
   -3.0836    3.1532   -5.7421 H   0  0  0  0  0  0  0  0  0  0  0  0
    0.4800    5.4709   -5.2749 H   0  0  0  0  0  0  0  0  0  0  0  0
    0.7319    4.6682   -3.0001 H   0  0  0  0  0  0  0  0  0  0  0  0
   -3.5686    5.0574   -6.9857 H   0  0  0  0  0  0  0  0  0  0  0  0
   -3.7682    5.8306   -9.3058 H   0  0  0  0  0  0  0  0  0  0  0  0
   -1.7546    6.0710  -10.7111 H   0  0  0  0  0  0  0  0  0  0  0  0
    0.4641    5.5239   -9.7814 H   0  0  0  0  0  0  0  0  0  0  0  0
    0.6712    4.7308   -7.4694 H   0  0  0  0  0  0  0  0  0  0  0  0
  1  2  1  0  0  0  0
  2  3  4  0  0  0  0
  3  4  2  0  0  0  0
  4  5  4  0  0  0  0
  2  6  4  0  0  0  0
  5  6  4  0  0  0  0
  5  7  1  0  0  0  0
  7  8  1  0  0  0  0
  8  9  2  0  0  0  0
  8 10  1  0  0  0  0
 10 11  4  0  0  0  0
 11 12  4  0  0  0  0
 12 13  4  0  0  0  0
 13 14  4  0  0  0  0
 10 15  4  0  0  0  0
 14 15  2  0  0  0  0
 13 16  1  0  0  0  0
 16 17  4  0  0  0  0
 17 18  4  0  0  0  0
 18 19  4  0  0  0  0
 19 20  4  0  0  0  0
 16 21  4  0  0  0  0
 20 21  4  0  0  0  0
  1 22  1  0  0  0  0
  1 23  1  0  0  0  0
  1 24  1  0  0  0  0
  3 25  1  0  0  0  0
  4 26  1  0  0  0  0
  6 27  1  0  0  0  0
  7 28  1  0  0  0  0
  7 29  1  0  0  0  0
 11 30  1  0  0  0  0
 12 31  1  0  0  0  0
 14 32  1  0  0  0  0
 15 33  1  0  0  0  0
 17 34  1  0  0  0  0
 18 35  1  0  0  0  0
 19 36  1  0  0  0  0
 20 37  1  0  0  0  0
 21 38  1  0  0  0  0
M  CHG  1   1   1
M  END
