 xtb: 6.7.1 (edcfbbe)
          12202407093D

 28 28  0     0  0            999 V2000
    0.9709    0.0290    0.2292 C   0  0  0  0  0  0  0  0  0  0  0  0
    0.4596    0.7317   -0.7644 C   0  0  0  0  0  0  0  0  0  0  0  0
   -1.0125    0.8194   -1.0415 C   0  0  0  0  0  0  0  0  0  0  0  0
   -1.5124    2.2333   -1.0120 N   0  0  0  0  0  0  0  0  0  0  0  0
   -0.7809    3.0385   -2.0260 C   0  0  0  0  0  0  0  0  0  0  0  0
   -0.0271    4.1490   -1.6786 C   0  0  0  0  0  0  0  0  0  0  0  0
    0.6354    4.8689   -2.6623 C   0  0  0  0  0  0  0  0  0  0  0  0
    0.5551    4.4901   -3.9894 C   0  0  0  0  0  0  0  0  0  0  0  0
   -0.1969    3.3801   -4.3349 C   0  0  0  0  0  0  0  0  0  0  0  0
   -0.8630    2.6574   -3.3612 C   0  0  0  0  0  0  0  0  0  0  0  0
   -2.9552    2.2643   -1.3298 C   0  0  0  0  0  0  0  0  0  0  0  0
   -1.3426    2.7426    0.3614 C   0  0  0  0  0  0  0  0  0  0  0  0
    0.3555   -0.5190    0.9238 H   0  0  0  0  0  0  0  0  0  0  0  0
    2.0335   -0.0431    0.3771 H   0  0  0  0  0  0  0  0  0  0  0  0
    1.0985    1.2594   -1.4591 H   0  0  0  0  0  0  0  0  0  0  0  0
   -1.2198    0.3997   -2.0280 H   0  0  0  0  0  0  0  0  0  0  0  0
   -1.5704    0.2459   -0.2982 H   0  0  0  0  0  0  0  0  0  0  0  0
    0.0711    4.4814   -0.6599 H   0  0  0  0  0  0  0  0  0  0  0  0
    1.2174    5.7304   -2.3767 H   0  0  0  0  0  0  0  0  0  0  0  0
    1.0741    5.0524   -4.7485 H   0  0  0  0  0  0  0  0  0  0  0  0
   -0.2692    3.0695   -5.3649 H   0  0  0  0  0  0  0  0  0  0  0  0
   -1.4369    1.7975   -3.6693 H   0  0  0  0  0  0  0  0  0  0  0  0
   -3.5124    1.6887   -0.5925 H   0  0  0  0  0  0  0  0  0  0  0  0
   -3.3080    3.2945   -1.3172 H   0  0  0  0  0  0  0  0  0  0  0  0
   -3.1473    1.8463   -2.3146 H   0  0  0  0  0  0  0  0  0  0  0  0
   -1.9120    2.1169    1.0471 H   0  0  0  0  0  0  0  0  0  0  0  0
   -0.2940    2.7008    0.6501 H   0  0  0  0  0  0  0  0  0  0  0  0
   -1.7128    3.7628    0.4380 H   0  0  0  0  0  0  0  0  0  0  0  0
  1  2  2  0  0  0  0
  2  3  1  0  0  0  0
  3  4  1  0  0  0  0
  4  5  1  0  0  0  0
  5  6  4  0  0  0  0
  6  7  4  0  0  0  0
  7  8  4  0  0  0  0
  8  9  4  0  0  0  0
  5 10  4  0  0  0  0
  9 10  4  0  0  0  0
  4 11  1  0  0  0  0
  4 12  1  0  0  0  0
  1 13  1  0  0  0  0
  1 14  1  0  0  0  0
  2 15  1  0  0  0  0
  3 16  1  0  0  0  0
  3 17  1  0  0  0  0
  6 18  1  0  0  0  0
  7 19  1  0  0  0  0
  8 20  1  0  0  0  0
  9 21  1  0  0  0  0
 10 22  1  0  0  0  0
 11 23  1  0  0  0  0
 11 24  1  0  0  0  0
 11 25  1  0  0  0  0
 12 26  1  0  0  0  0
 12 27  1  0  0  0  0
 12 28  1  0  0  0  0
M  CHG  1   1   1
M  END
