 xtb: 6.7.1 (edcfbbe)
          12202407093D

 54 55  0     0  0            999 V2000
    3.3555   -1.3281    2.4959 C   0  0  0  0  0  0  0  0  0  0  0  0
    2.2173   -1.1760    3.3464 O   0  0  0  0  0  0  0  0  0  0  0  0
    1.4531   -0.1169    3.2017 C   0  0  0  0  0  0  0  0  0  0  0  0
    1.6385    0.7953    2.4308 O   0  0  0  0  0  0  0  0  0  0  0  0
    0.2186   -0.2058    4.1094 C   0  0  0  0  0  0  0  0  0  0  0  0
   -0.0555    1.1415    4.8274 C   0  0  0  0  0  0  0  0  0  0  0  0
   -0.2413    2.2530    3.8573 C   0  0  0  0  0  0  0  0  0  0  0  0
   -1.3315    2.4841    3.0615 C   0  0  0  0  0  0  0  0  0  0  0  0
   -1.0641    3.5669    2.2843 N   0  0  0  0  0  0  0  0  0  0  0  0
    0.1534    3.9938    2.5945 C   0  0  0  0  0  0  0  0  0  0  0  0
    0.6764    3.2205    3.5434 N   0  0  0  0  0  0  0  0  0  0  0  0
    1.9935    3.4240    4.1368 C   0  0  0  0  0  0  0  0  0  0  0  0
    3.0353    3.6579    3.0484 C   0  0  0  0  0  0  0  0  0  0  0  0
    1.9247    4.5798    5.1321 C   0  0  0  0  0  0  0  0  0  0  0  0
   -1.9441    4.1180    1.2599 C   0  0  0  0  0  0  0  0  0  0  0  0
   -2.1580    5.6100    1.4903 C   0  0  0  0  0  0  0  0  0  0  0  0
   -1.3594    3.8281   -0.1197 C   0  0  0  0  0  0  0  0  0  0  0  0
   -0.8829   -0.5770    3.2598 N   0  0  0  0  0  0  0  0  0  0  0  0
   -1.5782   -1.7663    3.2298 C   0  0  0  0  0  0  0  0  0  0  0  0
   -2.2600   -2.0210    2.2641 O   0  0  0  0  0  0  0  0  0  0  0  0
   -1.4645   -2.6466    4.4196 C   0  0  0  0  0  0  0  0  0  0  0  0
   -1.2121   -4.0003    4.2184 C   0  0  0  0  0  0  0  0  0  0  0  0
   -1.1301   -4.8588    5.2993 C   0  0  0  0  0  0  0  0  0  0  0  0
   -1.3201   -4.3774    6.5844 C   0  0  0  0  0  0  0  0  0  0  0  0
   -1.6008   -3.0361    6.7878 C   0  0  0  0  0  0  0  0  0  0  0  0
   -1.6706   -2.1700    5.7113 C   0  0  0  0  0  0  0  0  0  0  0  0
    3.1180   -2.0559    1.7199 H   0  0  0  0  0  0  0  0  0  0  0  0
    4.1696   -1.6992    3.1145 H   0  0  0  0  0  0  0  0  0  0  0  0
    3.6178   -0.3727    2.0402 H   0  0  0  0  0  0  0  0  0  0  0  0
    0.3755   -0.9914    4.8527 H   0  0  0  0  0  0  0  0  0  0  0  0
   -0.9750    1.0244    5.4030 H   0  0  0  0  0  0  0  0  0  0  0  0
    0.7573    1.3479    5.5220 H   0  0  0  0  0  0  0  0  0  0  0  0
   -2.2606    1.9534    3.0101 H   0  0  0  0  0  0  0  0  0  0  0  0
    0.6447    4.8336    2.1485 H   0  0  0  0  0  0  0  0  0  0  0  0
    2.2485    2.5017    4.6635 H   0  0  0  0  0  0  0  0  0  0  0  0
    2.9241    4.6351    2.5873 H   0  0  0  0  0  0  0  0  0  0  0  0
    4.0279    3.6069    3.4859 H   0  0  0  0  0  0  0  0  0  0  0  0
    2.9532    2.8867    2.2869 H   0  0  0  0  0  0  0  0  0  0  0  0
    1.1711    4.3946    5.8941 H   0  0  0  0  0  0  0  0  0  0  0  0
    2.8863    4.6938    5.6232 H   0  0  0  0  0  0  0  0  0  0  0  0
    1.6875    5.5125    4.6263 H   0  0  0  0  0  0  0  0  0  0  0  0
   -2.8992    3.5946    1.3664 H   0  0  0  0  0  0  0  0  0  0  0  0
   -1.2469    6.1736    1.3088 H   0  0  0  0  0  0  0  0  0  0  0  0
   -2.9184    5.9728    0.8054 H   0  0  0  0  0  0  0  0  0  0  0  0
   -2.4969    5.8015    2.5057 H   0  0  0  0  0  0  0  0  0  0  0  0
   -1.1846    2.7629   -0.2499 H   0  0  0  0  0  0  0  0  0  0  0  0
   -2.0570    4.1548   -0.8849 H   0  0  0  0  0  0  0  0  0  0  0  0
   -0.4206    4.3566   -0.2640 H   0  0  0  0  0  0  0  0  0  0  0  0
   -0.9498   -0.0624    2.3895 H   0  0  0  0  0  0  0  0  0  0  0  0
   -1.0836   -4.3658    3.2111 H   0  0  0  0  0  0  0  0  0  0  0  0
   -0.9278   -5.9064    5.1383 H   0  0  0  0  0  0  0  0  0  0  0  0
   -1.2630   -5.0490    7.4272 H   0  0  0  0  0  0  0  0  0  0  0  0
   -1.7721   -2.6646    7.7868 H   0  0  0  0  0  0  0  0  0  0  0  0
   -1.9236   -1.1314    5.8707 H   0  0  0  0  0  0  0  0  0  0  0  0
  1  2  1  0  0  0  0
  2  3  4  0  0  0  0
  3  4  2  0  0  0  0
  3  5  1  0  0  0  0
  5  6  1  0  0  0  0
  6  7  1  0  0  0  0
  7  8  2  0  0  0  0
  8  9  4  0  0  0  0
  9 10  4  0  0  0  0
  7 11  4  0  0  0  0
 10 11  4  0  0  0  0
 11 12  1  0  0  0  0
 12 13  1  0  0  0  0
 12 14  1  0  0  0  0
  9 15  1  0  0  0  0
 15 16  1  0  0  0  0
 15 17  1  0  0  0  0
  5 18  1  0  0  0  0
 18 19  1  0  0  0  0
 19 20  2  0  0  0  0
 19 21  1  0  0  0  0
 21 22  4  0  0  0  0
 22 23  4  0  0  0  0
 23 24  4  0  0  0  0
 24 25  4  0  0  0  0
 21 26  4  0  0  0  0
 25 26  4  0  0  0  0
  1 27  1  0  0  0  0
  1 28  1  0  0  0  0
  1 29  1  0  0  0  0
  5 30  1  0  0  0  0
  6 31  1  0  0  0  0
  6 32  1  0  0  0  0
  8 33  1  0  0  0  0
 10 34  1  0  0  0  0
 12 35  1  0  0  0  0
 13 36  1  0  0  0  0
 13 37  1  0  0  0  0
 13 38  1  0  0  0  0
 14 39  1  0  0  0  0
 14 40  1  0  0  0  0
 14 41  1  0  0  0  0
 15 42  1  0  0  0  0
 16 43  1  0  0  0  0
 16 44  1  0  0  0  0
 16 45  1  0  0  0  0
 17 46  1  0  0  0  0
 17 47  1  0  0  0  0
 17 48  1  0  0  0  0
 18 49  1  0  0  0  0
 22 50  1  0  0  0  0
 23 51  1  0  0  0  0
 24 52  1  0  0  0  0
 25 53  1  0  0  0  0
 26 54  1  0  0  0  0
M  CHG  1   1   1
M  END
