31

O          1.03067       -0.48990        1.13729
C          0.56392        0.76938        1.20365
O          1.32014        1.72094        1.28684
C         -0.93355        0.83813        1.09585
C         -1.36988        1.40602       -0.25254
C         -1.07372        0.49775       -1.45344
C         -1.83364       -0.83383       -1.47824
C         -3.35242       -0.70455       -1.58319
N         -3.77037       -0.12888       -2.86587
C         -4.02429       -0.83896       -4.03022
C         -4.36699        0.07623       -4.98494
N         -4.31990        1.32063       -4.37964
C         -3.97952        1.17767       -3.09032
C         -4.57696        2.60269       -5.02269
H          2.00424       -0.39145        1.22495
H         -1.37183       -0.14691        1.28480
H         -1.28452        1.48625        1.90752
H         -2.43977        1.63613       -0.21284
H         -0.85945        2.36333       -0.41897
H         -1.29127        1.05446       -2.37239
H          0.00131        0.28311       -1.48718
H         -1.47016       -1.41436       -2.33547
H         -1.58596       -1.41812       -0.58556
H         -3.81028       -1.69753       -1.49932
H         -3.76751       -0.09571       -0.77403
H         -3.92083       -1.91061       -4.02773
H         -4.63678        0.00292       -6.02462
H         -3.87417        1.97745       -2.36639
H         -5.25567        3.18768       -4.39645
H         -3.62805        3.13360       -5.13690
H         -5.03185        2.44912       -6.00470
