21

N          0.57266       -0.19694        0.26390
N          0.44497        1.14193       -0.13785
C         -0.03158        1.50997       -1.37604
O          0.03114        2.68245       -1.74628
C         -0.56372        0.43001       -2.29233
N          0.54442       -0.20406       -3.03660
C          1.29467        0.53948       -3.88555
C          2.35207       -0.03514       -4.58130
C          2.62647       -1.38577       -4.41136
C          1.84042       -2.13717       -3.54805
C          0.79910       -1.52143       -2.86357
H          1.54125       -0.34543        0.58189
H          0.02164       -0.32623        1.12507
H          0.81402        1.90229        0.44069
H         -1.13087       -0.32379       -1.73882
H         -1.23912        0.87210       -3.03359
H          1.04699        1.59299       -3.99460
H          2.95956        0.56850       -5.25243
H          3.45028       -1.85138       -4.95100
H          2.03970       -3.19740       -3.40713
H          0.16785       -2.07521       -2.17408
