15

C          0.98095        0.04538       -0.02512
N          0.46482       -0.02352       -1.45274
O          0.92807       -1.25989       -2.06622
C         -1.05405       -0.05377       -1.46774
C          0.98097        1.15519       -2.26106
H          0.61291       -0.83330        0.51183
H          0.60852        0.96593        0.43277
H          2.07405        0.04170       -0.05650
H          1.90717       -1.23755       -2.05559
H         -1.42261        0.86844       -1.01002
H         -1.38309       -0.13000       -2.50796
H         -1.38309       -0.92836       -0.89944
H          0.60852        2.07652       -1.80474
H          2.07406        1.12799       -2.24498
H          0.61297        1.05154       -3.28559
