 xtb: 6.7.1 (edcfbbe)
          12202407093D

 41 42  0     0  0            999 V2000
   -0.3523    2.6797   -0.3520 C   0  0  0  0  0  0  0  0  0  0  0  0
   -0.4187    1.5609    0.5969 N   0  0  0  0  0  0  0  0  0  0  0  0
    0.1095    1.9457    1.9133 C   0  0  0  0  0  0  0  0  0  0  0  0
   -1.7674    0.9480    0.6839 C   0  0  0  0  0  0  0  0  0  0  0  0
   -1.5652   -0.5520    0.9360 C   0  0  0  0  0  0  0  0  0  0  0  0
   -0.5234   -0.9347    0.0632 O   0  0  0  0  0  0  0  0  0  0  0  0
    0.1936   -2.1179    0.4521 C   0  0  0  0  0  0  0  0  0  0  0  0
    1.1209   -2.5176   -0.6763 C   0  0  0  0  0  0  0  0  0  0  0  0
    2.0791   -3.4959   -0.4381 C   0  0  0  0  0  0  0  0  0  0  0  0
    2.9382   -3.8883   -1.4476 C   0  0  0  0  0  0  0  0  0  0  0  0
    2.8500   -3.3072   -2.7021 C   0  0  0  0  0  0  0  0  0  0  0  0
    1.8951   -2.3359   -2.9432 C   0  0  0  0  0  0  0  0  0  0  0  0
    1.0319   -1.9417   -1.9346 C   0  0  0  0  0  0  0  0  0  0  0  0
    0.9729   -1.8487    1.7213 C   0  0  0  0  0  0  0  0  0  0  0  0
    0.6763   -2.5039    2.9086 C   0  0  0  0  0  0  0  0  0  0  0  0
    1.3940   -2.2208    4.0592 C   0  0  0  0  0  0  0  0  0  0  0  0
    2.4056   -1.2760    4.0330 C   0  0  0  0  0  0  0  0  0  0  0  0
    2.7045   -0.6161    2.8515 C   0  0  0  0  0  0  0  0  0  0  0  0
    1.9908   -0.9002    1.7011 C   0  0  0  0  0  0  0  0  0  0  0  0
   -1.0134    3.4825   -0.0277 H   0  0  0  0  0  0  0  0  0  0  0  0
   -0.6519    2.3512   -1.3450 H   0  0  0  0  0  0  0  0  0  0  0  0
    0.6649    3.0635   -0.4059 H   0  0  0  0  0  0  0  0  0  0  0  0
    0.1388    0.7486    0.2277 H   0  0  0  0  0  0  0  0  0  0  0  0
   -0.4849    2.7606    2.3250 H   0  0  0  0  0  0  0  0  0  0  0  0
    0.0830    1.0996    2.5967 H   0  0  0  0  0  0  0  0  0  0  0  0
    1.1423    2.2754    1.8202 H   0  0  0  0  0  0  0  0  0  0  0  0
   -2.3604    1.4162    1.4687 H   0  0  0  0  0  0  0  0  0  0  0  0
   -2.2707    1.0802   -0.2750 H   0  0  0  0  0  0  0  0  0  0  0  0
   -1.2839   -0.7454    1.9797 H   0  0  0  0  0  0  0  0  0  0  0  0
   -2.4861   -1.1039    0.7171 H   0  0  0  0  0  0  0  0  0  0  0  0
   -0.5335   -2.9251    0.6241 H   0  0  0  0  0  0  0  0  0  0  0  0
    2.1487   -3.9500    0.5395 H   0  0  0  0  0  0  0  0  0  0  0  0
    3.6775   -4.6499   -1.2540 H   0  0  0  0  0  0  0  0  0  0  0  0
    3.5207   -3.6143   -3.4894 H   0  0  0  0  0  0  0  0  0  0  0  0
    1.8156   -1.8843   -3.9205 H   0  0  0  0  0  0  0  0  0  0  0  0
    0.2780   -1.1945   -2.1310 H   0  0  0  0  0  0  0  0  0  0  0  0
   -0.1072   -3.2479    2.9298 H   0  0  0  0  0  0  0  0  0  0  0  0
    1.1641   -2.7426    4.9749 H   0  0  0  0  0  0  0  0  0  0  0  0
    2.9678   -1.0611    4.9281 H   0  0  0  0  0  0  0  0  0  0  0  0
    3.5031    0.1098    2.8247 H   0  0  0  0  0  0  0  0  0  0  0  0
    2.2413   -0.4123    0.7681 H   0  0  0  0  0  0  0  0  0  0  0  0
  1  2  1  0  0  0  0
  2  3  1  0  0  0  0
  2  4  1  0  0  0  0
  4  5  1  0  0  0  0
  5  6  1  0  0  0  0
  6  7  1  0  0  0  0
  7  8  1  0  0  0  0
  8  9  4  0  0  0  0
  9 10  4  0  0  0  0
 10 11  4  0  0  0  0
 11 12  4  0  0  0  0
  8 13  4  0  0  0  0
 12 13  4  0  0  0  0
  7 14  1  0  0  0  0
 14 15  4  0  0  0  0
 15 16  4  0  0  0  0
 16 17  4  0  0  0  0
 17 18  4  0  0  0  0
 14 19  4  0  0  0  0
 18 19  4  0  0  0  0
  1 20  1  0  0  0  0
  1 21  1  0  0  0  0
  1 22  1  0  0  0  0
  2 23  1  0  0  0  0
  3 24  1  0  0  0  0
  3 25  1  0  0  0  0
  3 26  1  0  0  0  0
  4 27  1  0  0  0  0
  4 28  1  0  0  0  0
  5 29  1  0  0  0  0
  5 30  1  0  0  0  0
  7 31  1  0  0  0  0
  9 32  1  0  0  0  0
 10 33  1  0  0  0  0
 11 34  1  0  0  0  0
 12 35  1  0  0  0  0
 13 36  1  0  0  0  0
 15 37  1  0  0  0  0
 16 38  1  0  0  0  0
 17 39  1  0  0  0  0
 18 40  1  0  0  0  0
 19 41  1  0  0  0  0
M  CHG  1   1   1
M  END
