 xtb: 6.7.1 (edcfbbe)
          12202407093D

 36 38  0     0  0            999 V2000
    0.3131   -0.9781    0.0374 C   0  0  0  0  0  0  0  0  0  0  0  0
    0.1326    0.3279    0.0369 C   0  0  0  0  0  0  0  0  0  0  0  0
   -1.1854    0.9900   -0.2673 C   0  0  0  0  0  0  0  0  0  0  0  0
   -1.5508    1.9128    0.7860 N   0  0  0  0  0  0  0  0  0  0  0  0
   -1.4915    3.2389    0.7393 C   0  0  0  0  0  0  0  0  0  0  0  0
   -1.8616    3.7832    1.8935 N   0  0  0  0  0  0  0  0  0  0  0  0
   -2.1688    2.7568    2.7616 C   0  0  0  0  0  0  0  0  0  0  0  0
   -1.9666    1.5567    2.0516 C   0  0  0  0  0  0  0  0  0  0  0  0
   -2.1882    0.3178    2.6414 C   0  0  0  0  0  0  0  0  0  0  0  0
   -2.6190    0.3199    3.9511 C   0  0  0  0  0  0  0  0  0  0  0  0
   -2.8282    1.5102    4.6555 C   0  0  0  0  0  0  0  0  0  0  0  0
   -2.6099    2.7442    4.0805 C   0  0  0  0  0  0  0  0  0  0  0  0
   -1.8309    5.2003    2.2016 C   0  0  0  0  0  0  0  0  0  0  0  0
   -0.4142    5.6379    2.5028 C   0  0  0  0  0  0  0  0  0  0  0  0
    0.2920    6.4085    1.5896 C   0  0  0  0  0  0  0  0  0  0  0  0
    1.5928    6.7952    1.8640 C   0  0  0  0  0  0  0  0  0  0  0  0
    2.1977    6.4054    3.0468 C   0  0  0  0  0  0  0  0  0  0  0  0
    1.4993    5.6294    3.9573 C   0  0  0  0  0  0  0  0  0  0  0  0
    0.1980    5.2454    3.6869 C   0  0  0  0  0  0  0  0  0  0  0  0
   -0.4861   -1.6674   -0.1811 H   0  0  0  0  0  0  0  0  0  0  0  0
    1.2762   -1.4132    0.2366 H   0  0  0  0  0  0  0  0  0  0  0  0
    0.9478    1.0067    0.2470 H   0  0  0  0  0  0  0  0  0  0  0  0
   -1.1139    1.5534   -1.2021 H   0  0  0  0  0  0  0  0  0  0  0  0
   -1.9735    0.2391   -0.3670 H   0  0  0  0  0  0  0  0  0  0  0  0
   -1.1907    3.8035   -0.1235 H   0  0  0  0  0  0  0  0  0  0  0  0
   -2.0244   -0.6000    2.1022 H   0  0  0  0  0  0  0  0  0  0  0  0
   -2.8020   -0.6190    4.4484 H   0  0  0  0  0  0  0  0  0  0  0  0
   -3.1700    1.4583    5.6768 H   0  0  0  0  0  0  0  0  0  0  0  0
   -2.7783    3.6536    4.6339 H   0  0  0  0  0  0  0  0  0  0  0  0
   -2.2245    5.7539    1.3463 H   0  0  0  0  0  0  0  0  0  0  0  0
   -2.4802    5.3718    3.0617 H   0  0  0  0  0  0  0  0  0  0  0  0
   -0.1788    6.7240    0.6696 H   0  0  0  0  0  0  0  0  0  0  0  0
    2.1314    7.4035    1.1542 H   0  0  0  0  0  0  0  0  0  0  0  0
    3.2101    6.7092    3.2613 H   0  0  0  0  0  0  0  0  0  0  0  0
    1.9656    5.3269    4.8819 H   0  0  0  0  0  0  0  0  0  0  0  0
   -0.3436    4.6441    4.4028 H   0  0  0  0  0  0  0  0  0  0  0  0
  1  2  2  0  0  0  0
  2  3  1  0  0  0  0
  3  4  1  0  0  0  0
  4  5  4  0  0  0  0
  5  6  4  0  0  0  0
  6  7  1  0  0  0  0
  4  8  1  0  0  0  0
  7  8  4  0  0  0  0
  8  9  4  0  0  0  0
  9 10  4  0  0  0  0
 10 11  4  0  0  0  0
  7 12  4  0  0  0  0
 11 12  4  0  0  0  0
  6 13  1  0  0  0  0
 13 14  1  0  0  0  0
 14 15  4  0  0  0  0
 15 16  4  0  0  0  0
 16 17  4  0  0  0  0
 17 18  4  0  0  0  0
 14 19  4  0  0  0  0
 18 19  4  0  0  0  0
  1 20  1  0  0  0  0
  1 21  1  0  0  0  0
  2 22  1  0  0  0  0
  3 23  1  0  0  0  0
  3 24  1  0  0  0  0
  5 25  1  0  0  0  0
  9 26  1  0  0  0  0
 10 27  1  0  0  0  0
 11 28  1  0  0  0  0
 12 29  1  0  0  0  0
 13 30  1  0  0  0  0
 13 31  1  0  0  0  0
 15 32  1  0  0  0  0
 16 33  1  0  0  0  0
 17 34  1  0  0  0  0
 18 35  1  0  0  0  0
 19 36  1  0  0  0  0
M  CHG  1   1   1
M  END
