 xtb: 6.7.1 (edcfbbe)
          12202407103D

 66 70  0     0  0            999 V2000
    1.5337    0.7847    1.1417 C   0  0  0  0  0  0  0  0  0  0  0  0
    1.3964   -0.7261    1.3436 C   0  0  0  0  0  0  0  0  0  0  0  0
    1.7861   -1.1281    2.7925 C   0  0  0  0  0  0  0  0  0  0  0  0
    0.9382   -1.5905    3.5233 O   0  0  0  0  0  0  0  0  0  0  0  0
    3.1592   -0.8573    3.2061 C   0  0  0  0  0  0  0  0  0  0  0  0
    4.2300   -0.6683    2.3250 C   0  0  0  0  0  0  0  0  0  0  0  0
    5.4829   -0.3666    2.8102 C   0  0  0  0  0  0  0  0  0  0  0  0
    5.7171   -0.2369    4.1829 C   0  0  0  0  0  0  0  0  0  0  0  0
    4.6539   -0.4602    5.0616 C   0  0  0  0  0  0  0  0  0  0  0  0
    3.4025   -0.7716    4.5836 C   0  0  0  0  0  0  0  0  0  0  0  0
    7.0425    0.1314    4.6866 C   0  0  0  0  0  0  0  0  0  0  0  0
    7.8138    1.0806    4.0155 C   0  0  0  0  0  0  0  0  0  0  0  0
    9.0542    1.4473    4.5017 C   0  0  0  0  0  0  0  0  0  0  0  0
    9.5496    0.8642    5.6567 C   0  0  0  0  0  0  0  0  0  0  0  0
    8.7955   -0.0857    6.3266 C   0  0  0  0  0  0  0  0  0  0  0  0
    7.5492   -0.4462    5.8507 C   0  0  0  0  0  0  0  0  0  0  0  0
    0.0281   -1.1257    1.1085 N   0  0  0  0  0  0  0  0  0  0  0  0
   -1.0368   -0.7487    1.8718 C   0  0  0  0  0  0  0  0  0  0  0  0
   -2.1395   -1.3425    1.3448 C   0  0  0  0  0  0  0  0  0  0  0  0
   -1.7320   -2.0852    0.2750 N   0  0  0  0  0  0  0  0  0  0  0  0
   -0.4148   -1.9320    0.1481 C   0  0  0  0  0  0  0  0  0  0  0  0
   -2.5886   -2.6657   -0.7273 C   0  0  0  0  0  0  0  0  0  0  0  0
   -2.3905   -1.8126   -2.0172 C   0  0  0  0  0  0  0  0  0  0  0  0
   -1.3466   -1.2024   -2.1330 O   0  0  0  0  0  0  0  0  0  0  0  0
   -3.4583   -1.7941   -3.0019 C   0  0  0  0  0  0  0  0  0  0  0  0
   -3.2465   -1.0216   -4.1553 C   0  0  0  0  0  0  0  0  0  0  0  0
   -4.2218   -0.9000   -5.1151 C   0  0  0  0  0  0  0  0  0  0  0  0
   -5.4514   -1.5497   -4.9686 C   0  0  0  0  0  0  0  0  0  0  0  0
   -5.6526   -2.3410   -3.8323 C   0  0  0  0  0  0  0  0  0  0  0  0
   -4.6826   -2.4617   -2.8636 C   0  0  0  0  0  0  0  0  0  0  0  0
   -6.5074   -1.3915   -5.9694 C   0  0  0  0  0  0  0  0  0  0  0  0
   -7.3225   -2.4659   -6.3271 C   0  0  0  0  0  0  0  0  0  0  0  0
   -8.3193   -2.3051   -7.2704 C   0  0  0  0  0  0  0  0  0  0  0  0
   -8.5282   -1.0689   -7.8604 C   0  0  0  0  0  0  0  0  0  0  0  0
   -7.7284    0.0064   -7.5083 C   0  0  0  0  0  0  0  0  0  0  0  0
   -6.7214   -0.1529   -6.5761 C   0  0  0  0  0  0  0  0  0  0  0  0
   -2.2250   -4.1210   -1.0207 C   0  0  0  0  0  0  0  0  0  0  0  0
    0.9377    1.3266    1.8716 H   0  0  0  0  0  0  0  0  0  0  0  0
    1.1987    1.0578    0.1430 H   0  0  0  0  0  0  0  0  0  0  0  0
    2.5696    1.0869    1.2577 H   0  0  0  0  0  0  0  0  0  0  0  0
    2.0268   -1.2634    0.6292 H   0  0  0  0  0  0  0  0  0  0  0  0
    4.0994   -0.7871    1.2599 H   0  0  0  0  0  0  0  0  0  0  0  0
    6.3046   -0.2455    2.1208 H   0  0  0  0  0  0  0  0  0  0  0  0
    4.8114   -0.3627    6.1245 H   0  0  0  0  0  0  0  0  0  0  0  0
    2.5766   -0.9313    5.2601 H   0  0  0  0  0  0  0  0  0  0  0  0
    7.4241    1.5559    3.1273 H   0  0  0  0  0  0  0  0  0  0  0  0
    9.6360    2.1915    3.9792 H   0  0  0  0  0  0  0  0  0  0  0  0
   10.5197    1.1495    6.0335 H   0  0  0  0  0  0  0  0  0  0  0  0
    9.1798   -0.5459    7.2242 H   0  0  0  0  0  0  0  0  0  0  0  0
    6.9754   -1.2015    6.3670 H   0  0  0  0  0  0  0  0  0  0  0  0
   -0.9449   -0.1112    2.7255 H   0  0  0  0  0  0  0  0  0  0  0  0
   -3.1627   -1.2934    1.6553 H   0  0  0  0  0  0  0  0  0  0  0  0
    0.1982   -2.3917   -0.6000 H   0  0  0  0  0  0  0  0  0  0  0  0
   -3.6147   -2.5913   -0.3622 H   0  0  0  0  0  0  0  0  0  0  0  0
   -2.2969   -0.5205   -4.2667 H   0  0  0  0  0  0  0  0  0  0  0  0
   -4.0332   -0.3102   -5.9988 H   0  0  0  0  0  0  0  0  0  0  0  0
   -6.5994   -2.8420   -3.6995 H   0  0  0  0  0  0  0  0  0  0  0  0
   -4.8920   -3.0718   -1.9987 H   0  0  0  0  0  0  0  0  0  0  0  0
   -7.1514   -3.4377   -5.8880 H   0  0  0  0  0  0  0  0  0  0  0  0
   -8.9362   -3.1466   -7.5468 H   0  0  0  0  0  0  0  0  0  0  0  0
   -9.3115   -0.9438   -8.5919 H   0  0  0  0  0  0  0  0  0  0  0  0
   -7.8910    0.9726   -7.9614 H   0  0  0  0  0  0  0  0  0  0  0  0
   -6.1168    0.6948   -6.2892 H   0  0  0  0  0  0  0  0  0  0  0  0
   -2.2554   -4.7085   -0.1056 H   0  0  0  0  0  0  0  0  0  0  0  0
   -2.9332   -4.5425   -1.7280 H   0  0  0  0  0  0  0  0  0  0  0  0
   -1.2314   -4.1953   -1.4548 H   0  0  0  0  0  0  0  0  0  0  0  0
  1  2  1  0  0  0  0
  2  3  1  0  0  0  0
  3  4  2  0  0  0  0
  3  5  1  0  0  0  0
  5  6  4  0  0  0  0
  6  7  4  0  0  0  0
  7  8  4  0  0  0  0
  8  9  4  0  0  0  0
  5 10  4  0  0  0  0
  9 10  4  0  0  0  0
  8 11  1  0  0  0  0
 11 12  4  0  0  0  0
 12 13  4  0  0  0  0
 13 14  4  0  0  0  0
 14 15  4  0  0  0  0
 11 16  4  0  0  0  0
 15 16  4  0  0  0  0
  2 17  1  0  0  0  0
 17 18  4  0  0  0  0
 18 19  2  0  0  0  0
 19 20  4  0  0  0  0
 17 21  4  0  0  0  0
 20 21  4  0  0  0  0
 20 22  1  0  0  0  0
 22 23  1  0  0  0  0
 23 24  2  0  0  0  0
 23 25  1  0  0  0  0
 25 26  4  0  0  0  0
 26 27  4  0  0  0  0
 27 28  4  0  0  0  0
 28 29  4  0  0  0  0
 25 30  4  0  0  0  0
 29 30  4  0  0  0  0
 28 31  1  0  0  0  0
 31 32  4  0  0  0  0
 32 33  4  0  0  0  0
 33 34  4  0  0  0  0
 34 35  4  0  0  0  0
 31 36  4  0  0  0  0
 35 36  4  0  0  0  0
 22 37  1  0  0  0  0
  1 38  1  0  0  0  0
  1 39  1  0  0  0  0
  1 40  1  0  0  0  0
  2 41  1  0  0  0  0
  6 42  1  0  0  0  0
  7 43  1  0  0  0  0
  9 44  1  0  0  0  0
 10 45  1  0  0  0  0
 12 46  1  0  0  0  0
 13 47  1  0  0  0  0
 14 48  1  0  0  0  0
 15 49  1  0  0  0  0
 16 50  1  0  0  0  0
 18 51  1  0  0  0  0
 19 52  1  0  0  0  0
 21 53  1  0  0  0  0
 22 54  1  0  0  0  0
 26 55  1  0  0  0  0
 27 56  1  0  0  0  0
 29 57  1  0  0  0  0
 30 58  1  0  0  0  0
 32 59  1  0  0  0  0
 33 60  1  0  0  0  0
 34 61  1  0  0  0  0
 35 62  1  0  0  0  0
 36 63  1  0  0  0  0
 37 64  1  0  0  0  0
 37 65  1  0  0  0  0
 37 66  1  0  0  0  0
M  CHG  1   1   1
M  END
