 xtb: 6.7.1 (edcfbbe)
          12202407093D

 22 22  0     0  0            999 V2000
    0.9514    0.0302   -0.0658 C   0  0  0  0  0  0  0  0  0  0  0  0
    0.4857   -0.0150    1.2935 N   0  0  0  0  0  0  0  0  0  0  0  0
    0.2705    1.0679    2.0901 C   0  0  0  0  0  0  0  0  0  0  0  0
   -0.1541    0.6013    3.2972 C   0  0  0  0  0  0  0  0  0  0  0  0
   -0.1923   -0.7559    3.2203 N   0  0  0  0  0  0  0  0  0  0  0  0
    0.2006   -1.1056    1.9982 C   0  0  0  0  0  0  0  0  0  0  0  0
   -0.5772   -1.6630    4.2980 C   0  0  0  0  0  0  0  0  0  0  0  0
   -1.7358   -2.5479    3.8500 C   0  0  0  0  0  0  0  0  0  0  0  0
    0.6343   -2.4807    4.7362 C   0  0  0  0  0  0  0  0  0  0  0  0
    0.3111    0.6826   -0.6587 H   0  0  0  0  0  0  0  0  0  0  0  0
    0.9406   -0.9682   -0.4964 H   0  0  0  0  0  0  0  0  0  0  0  0
    1.9693    0.4207   -0.1018 H   0  0  0  0  0  0  0  0  0  0  0  0
    0.4290    2.0722    1.7538 H   0  0  0  0  0  0  0  0  0  0  0  0
   -0.4262    1.1372    4.1837 H   0  0  0  0  0  0  0  0  0  0  0  0
    0.2756   -2.1103    1.6316 H   0  0  0  0  0  0  0  0  0  0  0  0
   -0.9053   -1.0280    5.1262 H   0  0  0  0  0  0  0  0  0  0  0  0
   -1.4264   -3.2440    3.0752 H   0  0  0  0  0  0  0  0  0  0  0  0
   -2.0927   -3.1257    4.6972 H   0  0  0  0  0  0  0  0  0  0  0  0
   -2.5625   -1.9476    3.4776 H   0  0  0  0  0  0  0  0  0  0  0  0
    1.4587   -1.8319    5.0210 H   0  0  0  0  0  0  0  0  0  0  0  0
    0.3673   -3.0863    5.5965 H   0  0  0  0  0  0  0  0  0  0  0  0
    0.9665   -3.1457    3.9436 H   0  0  0  0  0  0  0  0  0  0  0  0
  1  2  1  0  0  0  0
  2  3  4  0  0  0  0
  3  4  2  0  0  0  0
  4  5  4  0  0  0  0
  2  6  4  0  0  0  0
  5  6  4  0  0  0  0
  5  7  1  0  0  0  0
  7  8  1  0  0  0  0
  7  9  1  0  0  0  0
  1 10  1  0  0  0  0
  1 11  1  0  0  0  0
  1 12  1  0  0  0  0
  3 13  1  0  0  0  0
  4 14  1  0  0  0  0
  6 15  1  0  0  0  0
  7 16  1  0  0  0  0
  8 17  1  0  0  0  0
  8 18  1  0  0  0  0
  8 19  1  0  0  0  0
  9 20  1  0  0  0  0
  9 21  1  0  0  0  0
  9 22  1  0  0  0  0
M  CHG  1   1   1
M  END
