36

C          0.74180       -0.47144        0.05214
C          0.18593        0.72820       -0.16672
C         -1.28467        0.99371       -0.22760
N         -1.63032        1.88016        0.87599
C         -1.51022        3.21316        0.82678
N         -1.89483        3.73066        2.00143
C         -2.27705        2.69864        2.85342
C         -2.09931        1.50838        2.13207
C         -2.37347        0.25913        2.68379
C         -2.84460        0.25723        4.00352
C         -3.02616        1.45132        4.72700
C         -2.74398        2.70455        4.16612
C         -1.84609        5.15917        2.30714
C         -0.40548        5.55153        2.50619
C          0.34141        6.10070        1.45168
C          1.68755        6.42361        1.63112
C          2.29976        6.20624        2.86335
C          1.56906        5.66533        3.91848
C          0.22490        5.33486        3.74130
H          0.15109       -1.36840        0.21312
H          1.82355       -0.58514        0.07215
H          0.84614        1.57697       -0.32967
H         -1.53973        1.48885       -1.17079
H         -1.87829        0.07605       -0.16568
H         -1.15176        3.77904       -0.02461
H         -2.22779       -0.65857        2.12833
H         -3.07512       -0.69373        4.48564
H         -3.39399        1.39671        5.75254
H         -2.88118        3.62095        4.72572
H         -2.29484        5.70891        1.47173
H         -2.44065        5.38607        3.19761
H         -0.11318        6.29424        0.48254
H          2.26248        6.85338        0.81331
H          3.34714        6.46511        3.00443
H          2.04950        5.50396        4.88137
H         -0.32226        4.91102        4.58059
