36

C          1.06773        0.25755        0.01281
C          0.70553        0.58256       -1.42813
C          1.13667       -0.49516       -2.42600
C          0.54839       -1.88995       -2.19056
C         -0.98077       -1.96532       -2.15261
C         -1.69813       -1.48467       -3.41820
C         -1.39804       -2.28876       -4.68186
N         -1.81520       -3.70523       -4.52483
C         -0.87754       -4.67626       -4.42816
C         -1.24662       -6.00702       -4.28402
C         -2.59433       -6.33885       -4.24109
C         -3.55675       -5.33610       -4.34356
C         -3.13409       -4.01750       -4.50739
C         -5.01694       -5.68097       -4.32793
H          0.51280       -0.61064        0.38031
H          0.82331        1.10471        0.66170
H          2.13816        0.05216        0.11250
H         -0.37238        0.76280       -1.50238
H          1.19516        1.52385       -1.70590
H          0.88226       -0.15826       -3.43785
H          2.23084       -0.57769       -2.40380
H          0.93038       -2.55983       -2.96879
H          0.93657       -2.28944       -1.24578
H         -1.27282       -3.00064       -1.93991
H         -1.35010       -1.37852       -1.30322
H         -2.77689       -1.50724       -3.22146
H         -1.45249       -0.43328       -3.60555
H         -1.95824       -1.89165       -5.53665
H         -0.33591       -2.25711       -4.94397
H          0.16681       -4.38038       -4.46579
H         -0.48843       -6.78325       -4.20607
H         -2.88983       -7.38230       -4.12933
H         -3.83895       -3.19794       -4.61698
H         -5.32253       -6.06411       -5.30626
H         -5.22409       -6.43882       -3.56503
H         -5.62752       -4.80359       -4.08999
