 xtb: 6.7.1 (edcfbbe)
          12202407103D

 54 54  0     0  0            999 V2000
    1.1299   -0.0309    0.4646 C   0  0  0  0  0  0  0  0  0  0  0  0
    0.9280    1.4788    0.5207 C   0  0  0  0  0  0  0  0  0  0  0  0
    1.3344    2.1912   -0.7703 C   0  0  0  0  0  0  0  0  0  0  0  0
    0.5462    1.7750   -2.0139 C   0  0  0  0  0  0  0  0  0  0  0  0
   -0.9663    1.9863   -1.9228 C   0  0  0  0  0  0  0  0  0  0  0  0
   -1.4040    3.4292   -1.6628 C   0  0  0  0  0  0  0  0  0  0  0  0
   -0.9464    4.4444   -2.7124 C   0  0  0  0  0  0  0  0  0  0  0  0
   -1.3798    4.1318   -4.1461 C   0  0  0  0  0  0  0  0  0  0  0  0
   -2.8894    3.9798   -4.3472 C   0  0  0  0  0  0  0  0  0  0  0  0
   -3.7185    5.2111   -3.9726 C   0  0  0  0  0  0  0  0  0  0  0  0
   -3.3987    6.4732   -4.7731 C   0  0  0  0  0  0  0  0  0  0  0  0
   -3.7293    6.3680   -6.2694 C   0  0  0  0  0  0  0  0  0  0  0  0
   -5.1612    6.2497   -6.4719 N   0  0  0  0  0  0  0  0  0  0  0  0
   -5.7379    5.0425   -6.5292 C   0  0  0  0  0  0  0  0  0  0  0  0
   -7.1025    4.9048   -6.6296 C   0  0  0  0  0  0  0  0  0  0  0  0
   -7.9240    6.0344   -6.6729 C   0  0  0  0  0  0  0  0  0  0  0  0
   -7.2881    7.2788   -6.6201 C   0  0  0  0  0  0  0  0  0  0  0  0
   -5.9199    7.3530   -6.5145 C   0  0  0  0  0  0  0  0  0  0  0  0
   -9.3968    5.9141   -6.8312 C   0  0  0  0  0  0  0  0  0  0  0  0
   -9.7445    5.7705   -8.3205 C   0  0  0  0  0  0  0  0  0  0  0  0
    0.4520   -0.4934   -0.2484 H   0  0  0  0  0  0  0  0  0  0  0  0
    0.9431   -0.4714    1.4411 H   0  0  0  0  0  0  0  0  0  0  0  0
    2.1508   -0.2673    0.1732 H   0  0  0  0  0  0  0  0  0  0  0  0
   -0.1152    1.6982    0.7559 H   0  0  0  0  0  0  0  0  0  0  0  0
    1.5346    1.8845    1.3337 H   0  0  0  0  0  0  0  0  0  0  0  0
    1.2365    3.2687   -0.6211 H   0  0  0  0  0  0  0  0  0  0  0  0
    2.3911    1.9873   -0.9602 H   0  0  0  0  0  0  0  0  0  0  0  0
    0.9400    2.3292   -2.8690 H   0  0  0  0  0  0  0  0  0  0  0  0
    0.7276    0.7170   -2.2112 H   0  0  0  0  0  0  0  0  0  0  0  0
   -1.4175    1.6296   -2.8520 H   0  0  0  0  0  0  0  0  0  0  0  0
   -1.3650    1.3642   -1.1197 H   0  0  0  0  0  0  0  0  0  0  0  0
   -2.4943    3.4488   -1.5860 H   0  0  0  0  0  0  0  0  0  0  0  0
   -1.0145    3.7494   -0.6953 H   0  0  0  0  0  0  0  0  0  0  0  0
   -1.3176    5.4306   -2.4226 H   0  0  0  0  0  0  0  0  0  0  0  0
    0.1429    4.5014   -2.6997 H   0  0  0  0  0  0  0  0  0  0  0  0
   -0.9961    4.9167   -4.8030 H   0  0  0  0  0  0  0  0  0  0  0  0
   -0.9084    3.2002   -4.4617 H   0  0  0  0  0  0  0  0  0  0  0  0
   -3.0645    3.7049   -5.3915 H   0  0  0  0  0  0  0  0  0  0  0  0
   -3.2426    3.1457   -3.7402 H   0  0  0  0  0  0  0  0  0  0  0  0
   -4.7819    4.9694   -4.0725 H   0  0  0  0  0  0  0  0  0  0  0  0
   -3.5471    5.4360   -2.9201 H   0  0  0  0  0  0  0  0  0  0  0  0
   -3.9487    7.3158   -4.3479 H   0  0  0  0  0  0  0  0  0  0  0  0
   -2.3362    6.6967   -4.6872 H   0  0  0  0  0  0  0  0  0  0  0  0
   -3.3746    7.2624   -6.7849 H   0  0  0  0  0  0  0  0  0  0  0  0
   -3.2337    5.4974   -6.6996 H   0  0  0  0  0  0  0  0  0  0  0  0
   -5.0872    4.1816   -6.5003 H   0  0  0  0  0  0  0  0  0  0  0  0
   -7.5330    3.9166   -6.6713 H   0  0  0  0  0  0  0  0  0  0  0  0
   -7.8670    8.1881   -6.6574 H   0  0  0  0  0  0  0  0  0  0  0  0
   -5.4088    8.3031   -6.4642 H   0  0  0  0  0  0  0  0  0  0  0  0
   -9.7589    5.0343   -6.2982 H   0  0  0  0  0  0  0  0  0  0  0  0
   -9.8935    6.7988   -6.4328 H   0  0  0  0  0  0  0  0  0  0  0  0
   -9.2697    4.8897   -8.7449 H   0  0  0  0  0  0  0  0  0  0  0  0
  -10.8197    5.6708   -8.4316 H   0  0  0  0  0  0  0  0  0  0  0  0
   -9.4190    6.6451   -8.8777 H   0  0  0  0  0  0  0  0  0  0  0  0
  1  2  1  0  0  0  0
  2  3  1  0  0  0  0
  3  4  1  0  0  0  0
  4  5  1  0  0  0  0
  5  6  1  0  0  0  0
  6  7  1  0  0  0  0
  7  8  1  0  0  0  0
  8  9  1  0  0  0  0
  9 10  1  0  0  0  0
 10 11  1  0  0  0  0
 11 12  1  0  0  0  0
 12 13  1  0  0  0  0
 13 14  4  0  0  0  0
 14 15  4  0  0  0  0
 15 16  4  0  0  0  0
 16 17  4  0  0  0  0
 13 18  4  0  0  0  0
 17 18  4  0  0  0  0
 16 19  1  0  0  0  0
 19 20  1  0  0  0  0
  1 21  1  0  0  0  0
  1 22  1  0  0  0  0
  1 23  1  0  0  0  0
  2 24  1  0  0  0  0
  2 25  1  0  0  0  0
  3 26  1  0  0  0  0
  3 27  1  0  0  0  0
  4 28  1  0  0  0  0
  4 29  1  0  0  0  0
  5 30  1  0  0  0  0
  5 31  1  0  0  0  0
  6 32  1  0  0  0  0
  6 33  1  0  0  0  0
  7 34  1  0  0  0  0
  7 35  1  0  0  0  0
  8 36  1  0  0  0  0
  8 37  1  0  0  0  0
  9 38  1  0  0  0  0
  9 39  1  0  0  0  0
 10 40  1  0  0  0  0
 10 41  1  0  0  0  0
 11 42  1  0  0  0  0
 11 43  1  0  0  0  0
 12 44  1  0  0  0  0
 12 45  1  0  0  0  0
 14 46  1  0  0  0  0
 15 47  1  0  0  0  0
 17 48  1  0  0  0  0
 18 49  1  0  0  0  0
 19 50  1  0  0  0  0
 19 51  1  0  0  0  0
 20 52  1  0  0  0  0
 20 53  1  0  0  0  0
 20 54  1  0  0  0  0
M  CHG  1   1   1
M  END
