 xtb: 6.7.1 (edcfbbe)
          12202407103D

 70 71  0     0  0            999 V2000
    1.3680    0.6326    0.0016 C   0  0  0  0  0  0  0  0  0  0  0  0
    1.4464    0.2342   -1.4674 C   0  0  0  0  0  0  0  0  0  0  0  0
    1.5930   -1.2736   -1.6768 C   0  0  0  0  0  0  0  0  0  0  0  0
    0.4272   -2.1147   -1.1530 C   0  0  0  0  0  0  0  0  0  0  0  0
   -0.9350   -1.7878   -1.7679 C   0  0  0  0  0  0  0  0  0  0  0  0
   -1.0132   -1.9411   -3.2883 C   0  0  0  0  0  0  0  0  0  0  0  0
   -0.6525   -3.3306   -3.8177 C   0  0  0  0  0  0  0  0  0  0  0  0
   -1.4827   -4.4779   -3.2400 C   0  0  0  0  0  0  0  0  0  0  0  0
   -2.9876   -4.3783   -3.4953 C   0  0  0  0  0  0  0  0  0  0  0  0
   -3.3954   -4.3813   -4.9703 C   0  0  0  0  0  0  0  0  0  0  0  0
   -2.9217   -5.5970   -5.7706 C   0  0  0  0  0  0  0  0  0  0  0  0
   -3.3224   -6.9531   -5.1866 C   0  0  0  0  0  0  0  0  0  0  0  0
   -4.8299   -7.1802   -5.0539 C   0  0  0  0  0  0  0  0  0  0  0  0
   -5.5723   -7.3088   -6.3865 C   0  0  0  0  0  0  0  0  0  0  0  0
   -5.2721   -8.6037   -7.1436 C   0  0  0  0  0  0  0  0  0  0  0  0
   -5.8670   -9.8582   -6.4914 C   0  0  0  0  0  0  0  0  0  0  0  0
   -7.3054   -9.9079   -6.6325 N   0  0  0  0  0  0  0  0  0  0  0  0
   -7.9531  -10.3639   -7.6990 C   0  0  0  0  0  0  0  0  0  0  0  0
   -9.2692  -10.2582   -7.5543 N   0  0  0  0  0  0  0  0  0  0  0  0
   -9.5084   -9.6849   -6.3232 C   0  0  0  0  0  0  0  0  0  0  0  0
   -8.2493   -9.4618   -5.7303 C   0  0  0  0  0  0  0  0  0  0  0  0
   -8.1442   -8.9006   -4.4618 C   0  0  0  0  0  0  0  0  0  0  0  0
   -9.3203   -8.5707   -3.8228 C   0  0  0  0  0  0  0  0  0  0  0  0
  -10.5689   -8.7910   -4.4134 C   0  0  0  0  0  0  0  0  0  0  0  0
  -10.6883   -9.3502   -5.6678 C   0  0  0  0  0  0  0  0  0  0  0  0
  -10.2730  -10.6246   -8.5292 C   0  0  0  0  0  0  0  0  0  0  0  0
  -10.7261   -9.4092   -9.3320 C   0  0  0  0  0  0  0  0  0  0  0  0
    0.4597    0.2539    0.4635 H   0  0  0  0  0  0  0  0  0  0  0  0
    1.3688    1.7159    0.0986 H   0  0  0  0  0  0  0  0  0  0  0  0
    2.2225    0.2397    0.5484 H   0  0  0  0  0  0  0  0  0  0  0  0
    0.5605    0.5979   -1.9910 H   0  0  0  0  0  0  0  0  0  0  0  0
    2.3130    0.7237   -1.9187 H   0  0  0  0  0  0  0  0  0  0  0  0
    1.7277   -1.4665   -2.7433 H   0  0  0  0  0  0  0  0  0  0  0  0
    2.5028   -1.6073   -1.1709 H   0  0  0  0  0  0  0  0  0  0  0  0
    0.6602   -3.1671   -1.3303 H   0  0  0  0  0  0  0  0  0  0  0  0
    0.3518   -1.9848   -0.0716 H   0  0  0  0  0  0  0  0  0  0  0  0
   -1.6834   -2.4327   -1.3010 H   0  0  0  0  0  0  0  0  0  0  0  0
   -1.2038   -0.7599   -1.5170 H   0  0  0  0  0  0  0  0  0  0  0  0
   -2.0268   -1.6846   -3.6059 H   0  0  0  0  0  0  0  0  0  0  0  0
   -0.3425   -1.2174   -3.7555 H   0  0  0  0  0  0  0  0  0  0  0  0
   -0.7557   -3.3198   -4.9053 H   0  0  0  0  0  0  0  0  0  0  0  0
    0.3982   -3.5328   -3.6009 H   0  0  0  0  0  0  0  0  0  0  0  0
   -1.1051   -5.4154   -3.6545 H   0  0  0  0  0  0  0  0  0  0  0  0
   -1.3255   -4.5228   -2.1608 H   0  0  0  0  0  0  0  0  0  0  0  0
   -3.4781   -5.2091   -2.9816 H   0  0  0  0  0  0  0  0  0  0  0  0
   -3.3660   -3.4601   -3.0428 H   0  0  0  0  0  0  0  0  0  0  0  0
   -4.4848   -4.3094   -5.0258 H   0  0  0  0  0  0  0  0  0  0  0  0
   -2.9969   -3.4873   -5.4524 H   0  0  0  0  0  0  0  0  0  0  0  0
   -3.3035   -5.5071   -6.7905 H   0  0  0  0  0  0  0  0  0  0  0  0
   -1.8331   -5.5736   -5.8388 H   0  0  0  0  0  0  0  0  0  0  0  0
   -2.8855   -7.7384   -5.8081 H   0  0  0  0  0  0  0  0  0  0  0  0
   -2.8791   -7.0527   -4.1953 H   0  0  0  0  0  0  0  0  0  0  0  0
   -4.9825   -8.0805   -4.4530 H   0  0  0  0  0  0  0  0  0  0  0  0
   -5.2642   -6.3483   -4.4991 H   0  0  0  0  0  0  0  0  0  0  0  0
   -6.6486   -7.2291   -6.2112 H   0  0  0  0  0  0  0  0  0  0  0  0
   -5.2905   -6.4702   -7.0230 H   0  0  0  0  0  0  0  0  0  0  0  0
   -5.6531   -8.5258   -8.1645 H   0  0  0  0  0  0  0  0  0  0  0  0
   -4.1934   -8.7429   -7.2067 H   0  0  0  0  0  0  0  0  0  0  0  0
   -5.4500  -10.7505   -6.9636 H   0  0  0  0  0  0  0  0  0  0  0  0
   -5.6274   -9.8845   -5.4284 H   0  0  0  0  0  0  0  0  0  0  0  0
   -7.4718  -10.7821   -8.5636 H   0  0  0  0  0  0  0  0  0  0  0  0
   -7.1898   -8.7229   -3.9959 H   0  0  0  0  0  0  0  0  0  0  0  0
   -9.2792   -8.1312   -2.8390 H   0  0  0  0  0  0  0  0  0  0  0  0
  -11.4591   -8.5163   -3.8707 H   0  0  0  0  0  0  0  0  0  0  0  0
  -11.6531   -9.5197   -6.1166 H   0  0  0  0  0  0  0  0  0  0  0  0
   -9.8473  -11.3801   -9.1924 H   0  0  0  0  0  0  0  0  0  0  0  0
  -11.1186  -11.0639   -7.9956 H   0  0  0  0  0  0  0  0  0  0  0  0
   -9.8953   -8.9824   -9.8886 H   0  0  0  0  0  0  0  0  0  0  0  0
  -11.4936   -9.7098  -10.0385 H   0  0  0  0  0  0  0  0  0  0  0  0
  -11.1386   -8.6441   -8.6794 H   0  0  0  0  0  0  0  0  0  0  0  0
  1  2  1  0  0  0  0
  2  3  1  0  0  0  0
  3  4  1  0  0  0  0
  4  5  1  0  0  0  0
  5  6  1  0  0  0  0
  6  7  1  0  0  0  0
  7  8  1  0  0  0  0
  8  9  1  0  0  0  0
  9 10  1  0  0  0  0
 10 11  1  0  0  0  0
 11 12  1  0  0  0  0
 12 13  1  0  0  0  0
 13 14  1  0  0  0  0
 14 15  1  0  0  0  0
 15 16  1  0  0  0  0
 16 17  1  0  0  0  0
 17 18  4  0  0  0  0
 18 19  4  0  0  0  0
 19 20  1  0  0  0  0
 17 21  1  0  0  0  0
 20 21  4  0  0  0  0
 21 22  4  0  0  0  0
 22 23  4  0  0  0  0
 23 24  4  0  0  0  0
 20 25  4  0  0  0  0
 24 25  4  0  0  0  0
 19 26  1  0  0  0  0
 26 27  1  0  0  0  0
  1 28  1  0  0  0  0
  1 29  1  0  0  0  0
  1 30  1  0  0  0  0
  2 31  1  0  0  0  0
  2 32  1  0  0  0  0
  3 33  1  0  0  0  0
  3 34  1  0  0  0  0
  4 35  1  0  0  0  0
  4 36  1  0  0  0  0
  5 37  1  0  0  0  0
  5 38  1  0  0  0  0
  6 39  1  0  0  0  0
  6 40  1  0  0  0  0
  7 41  1  0  0  0  0
  7 42  1  0  0  0  0
  8 43  1  0  0  0  0
  8 44  1  0  0  0  0
  9 45  1  0  0  0  0
  9 46  1  0  0  0  0
 10 47  1  0  0  0  0
 10 48  1  0  0  0  0
 11 49  1  0  0  0  0
 11 50  1  0  0  0  0
 12 51  1  0  0  0  0
 12 52  1  0  0  0  0
 13 53  1  0  0  0  0
 13 54  1  0  0  0  0
 14 55  1  0  0  0  0
 14 56  1  0  0  0  0
 15 57  1  0  0  0  0
 15 58  1  0  0  0  0
 16 59  1  0  0  0  0
 16 60  1  0  0  0  0
 18 61  1  0  0  0  0
 22 62  1  0  0  0  0
 23 63  1  0  0  0  0
 24 64  1  0  0  0  0
 25 65  1  0  0  0  0
 26 66  1  0  0  0  0
 26 67  1  0  0  0  0
 27 68  1  0  0  0  0
 27 69  1  0  0  0  0
 27 70  1  0  0  0  0
M  CHG  1   1   1
M  END
