30

C          2.42976       -0.08128       -0.25175
C          0.93015       -0.04243       -0.11252
C          0.25856       -1.27853       -0.07489
C         -1.11442       -1.34759        0.15009
C         -1.83736       -0.18391        0.36778
C         -1.18883        1.05044        0.34506
C          0.19434        1.14865        0.08534
C          0.82892        2.52255        0.05582
N          0.68965        3.33773       -1.25541
C         -0.76209        3.69797       -1.53365
C          1.48581        4.62947       -1.09246
C          1.24049        2.57175       -2.44837
H          2.89341       -0.05170        0.73929
H          2.75469       -0.99625       -0.75931
H          2.80947        0.75047       -0.84644
H          0.80943       -2.20996       -0.20418
H         -1.61265       -2.31455        0.17989
H         -2.90494       -0.24082        0.57084
H         -1.78397        1.93758        0.55257
H          0.39349        3.14093        0.85233
H          1.90070        2.46139        0.27520
H         -1.17843        4.18047       -0.64473
H         -0.79055        4.38726       -2.38366
H         -1.31507        2.79010       -1.78599
H          2.53321        4.37175       -0.90887
H          1.39613        5.21352       -2.01347
H          1.07302        5.18603       -0.24585
H          2.29804        2.36350       -2.27087
H          0.67045        1.64843       -2.57854
H          1.13306        3.19952       -3.33878
