 xtb: 6.7.1 (edcfbbe)
          12202407103D

 34 36  0     0  0            999 V2000
    1.4732   -0.7314    0.6107 C   0  0  0  0  0  0  0  0  0  0  0  0
    0.3499   -1.4068    0.7675 C   0  0  0  0  0  0  0  0  0  0  0  0
   -0.9836   -0.9257    0.2754 C   0  0  0  0  0  0  0  0  0  0  0  0
   -1.8122   -1.9628   -0.2659 O   0  0  0  0  0  0  0  0  0  0  0  0
   -1.4655   -2.4351   -1.4883 N   0  0  0  0  0  0  0  0  0  0  0  0
   -0.2710   -2.3628   -2.1302 C   0  0  0  0  0  0  0  0  0  0  0  0
   -0.4407   -3.0060   -3.3236 C   0  0  0  0  0  0  0  0  0  0  0  0
   -1.7206   -3.4475   -3.3826 N   0  0  0  0  0  0  0  0  0  0  0  0
   -2.3338   -3.0922   -2.2541 C   0  0  0  0  0  0  0  0  0  0  0  0
   -2.3214   -4.2227   -4.4546 C   0  0  0  0  0  0  0  0  0  0  0  0
   -2.6433   -5.6214   -3.9843 C   0  0  0  0  0  0  0  0  0  0  0  0
   -3.9550   -5.9992   -3.7517 C   0  0  0  0  0  0  0  0  0  0  0  0
   -4.2816   -7.2841   -3.3216 C   0  0  0  0  0  0  0  0  0  0  0  0
   -3.2440   -8.1634   -3.1285 C   0  0  0  0  0  0  0  0  0  0  0  0
   -1.9126   -7.7824   -3.3522 C   0  0  0  0  0  0  0  0  0  0  0  0
   -1.5874   -6.5196   -3.7767 C   0  0  0  0  0  0  0  0  0  0  0  0
   -1.0925   -8.8299   -3.0841 O   0  0  0  0  0  0  0  0  0  0  0  0
   -1.9376   -9.9079   -2.7212 C   0  0  0  0  0  0  0  0  0  0  0  0
   -3.2775   -9.4545   -2.7216 O   0  0  0  0  0  0  0  0  0  0  0  0
    1.5049    0.2144    0.0938 H   0  0  0  0  0  0  0  0  0  0  0  0
    2.4048   -1.0861    1.0137 H   0  0  0  0  0  0  0  0  0  0  0  0
    0.3240   -2.3453    1.3029 H   0  0  0  0  0  0  0  0  0  0  0  0
   -1.5871   -0.5795    1.1204 H   0  0  0  0  0  0  0  0  0  0  0  0
   -0.8806   -0.1068   -0.4457 H   0  0  0  0  0  0  0  0  0  0  0  0
    0.5945   -1.8907   -1.7112 H   0  0  0  0  0  0  0  0  0  0  0  0
    0.2652   -3.1613   -4.1142 H   0  0  0  0  0  0  0  0  0  0  0  0
   -3.3491   -3.3054   -1.9847 H   0  0  0  0  0  0  0  0  0  0  0  0
   -3.2325   -3.7186   -4.7846 H   0  0  0  0  0  0  0  0  0  0  0  0
   -1.6104   -4.2488   -5.2823 H   0  0  0  0  0  0  0  0  0  0  0  0
   -4.7540   -5.2951   -3.9255 H   0  0  0  0  0  0  0  0  0  0  0  0
   -5.3024   -7.5805   -3.1541 H   0  0  0  0  0  0  0  0  0  0  0  0
   -0.5614   -6.2447   -3.9571 H   0  0  0  0  0  0  0  0  0  0  0  0
   -1.8238  -10.7267   -3.4478 H   0  0  0  0  0  0  0  0  0  0  0  0
   -1.6680  -10.2670   -1.7180 H   0  0  0  0  0  0  0  0  0  0  0  0
  1  2  2  0  0  0  0
  2  3  1  0  0  0  0
  3  4  1  0  0  0  0
  4  5  1  0  0  0  0
  5  6  4  0  0  0  0
  6  7  2  0  0  0  0
  7  8  4  0  0  0  0
  5  9  4  0  0  0  0
  8  9  4  0  0  0  0
  8 10  1  0  0  0  0
 10 11  1  0  0  0  0
 11 12  4  0  0  0  0
 12 13  4  0  0  0  0
 13 14  4  0  0  0  0
 14 15  4  0  0  0  0
 11 16  4  0  0  0  0
 15 16  4  0  0  0  0
 15 17  1  0  0  0  0
 17 18  1  0  0  0  0
 14 19  1  0  0  0  0
 18 19  1  0  0  0  0
  1 20  1  0  0  0  0
  1 21  1  0  0  0  0
  2 22  1  0  0  0  0
  3 23  1  0  0  0  0
  3 24  1  0  0  0  0
  6 25  1  0  0  0  0
  7 26  1  0  0  0  0
  9 27  1  0  0  0  0
 10 28  1  0  0  0  0
 10 29  1  0  0  0  0
 12 30  1  0  0  0  0
 13 31  1  0  0  0  0
 16 32  1  0  0  0  0
 18 33  1  0  0  0  0
 18 34  1  0  0  0  0
M  CHG  1   1   1
M  END
