 xtb: 6.7.1 (edcfbbe)
          12202407103D

 30 30  0     0  0            999 V2000
    1.8396    1.1356   -1.0491 C   0  0  0  0  0  0  0  0  0  0  0  0
    0.5988    0.2621   -1.2046 C   0  0  0  0  0  0  0  0  0  0  0  0
    0.9960   -1.2045   -1.3236 C   0  0  0  0  0  0  0  0  0  0  0  0
   -0.1914   -2.1041   -1.4861 N   0  0  0  0  0  0  0  0  0  0  0  0
   -0.5519   -2.8134   -0.2358 C   0  0  0  0  0  0  0  0  0  0  0  0
   -0.2577   -4.0933   -0.3786 C   0  0  0  0  0  0  0  0  0  0  0  0
    0.2896   -4.3820   -1.7476 C   0  0  0  0  0  0  0  0  0  0  0  0
    0.0687   -3.1155   -2.4821 N   0  0  0  0  0  0  0  0  0  0  0  0
   -0.9475   -3.0999   -3.5123 C   0  0  0  0  0  0  0  0  0  0  0  0
   -0.3177   -5.6315   -2.3706 C   0  0  0  0  0  0  0  0  0  0  0  0
   -1.1312   -2.0323    0.8785 C   0  0  0  0  0  0  0  0  0  0  0  0
    2.3864    0.8727   -0.1476 H   0  0  0  0  0  0  0  0  0  0  0  0
    1.5518    2.1802   -0.9804 H   0  0  0  0  0  0  0  0  0  0  0  0
    2.5023    1.0191   -1.9020 H   0  0  0  0  0  0  0  0  0  0  0  0
   -0.0542    0.4144   -0.3434 H   0  0  0  0  0  0  0  0  0  0  0  0
    0.0572    0.5678   -2.1031 H   0  0  0  0  0  0  0  0  0  0  0  0
    1.6206   -1.3512   -2.2071 H   0  0  0  0  0  0  0  0  0  0  0  0
    1.5597   -1.5321   -0.4484 H   0  0  0  0  0  0  0  0  0  0  0  0
   -0.9723   -1.5082   -1.7966 H   0  0  0  0  0  0  0  0  0  0  0  0
   -0.3869   -4.8611    0.3582 H   0  0  0  0  0  0  0  0  0  0  0  0
    1.3779   -4.5239   -1.6833 H   0  0  0  0  0  0  0  0  0  0  0  0
   -1.9587   -3.2986   -3.1378 H   0  0  0  0  0  0  0  0  0  0  0  0
   -0.9236   -2.1284   -4.0065 H   0  0  0  0  0  0  0  0  0  0  0  0
   -0.6928   -3.8482   -4.2560 H   0  0  0  0  0  0  0  0  0  0  0  0
    0.0952   -5.8111   -3.3585 H   0  0  0  0  0  0  0  0  0  0  0  0
   -0.0672   -6.4838   -1.7447 H   0  0  0  0  0  0  0  0  0  0  0  0
   -1.3999   -5.5652   -2.4370 H   0  0  0  0  0  0  0  0  0  0  0  0
   -0.4111   -1.3217    1.2824 H   0  0  0  0  0  0  0  0  0  0  0  0
   -2.0129   -1.4796    0.5544 H   0  0  0  0  0  0  0  0  0  0  0  0
   -1.4225   -2.7079    1.6773 H   0  0  0  0  0  0  0  0  0  0  0  0
  1  2  1  0  0  0  0
  2  3  1  0  0  0  0
  3  4  1  0  0  0  0
  4  5  1  0  0  0  0
  5  6  2  0  0  0  0
  6  7  1  0  0  0  0
  4  8  1  0  0  0  0
  7  8  1  0  0  0  0
  8  9  1  0  0  0  0
  7 10  1  0  0  0  0
  5 11  1  0  0  0  0
  1 12  1  0  0  0  0
  1 13  1  0  0  0  0
  1 14  1  0  0  0  0
  2 15  1  0  0  0  0
  2 16  1  0  0  0  0
  3 17  1  0  0  0  0
  3 18  1  0  0  0  0
  4 19  1  0  0  0  0
  6 20  1  0  0  0  0
  7 21  1  0  0  0  0
  9 22  1  0  0  0  0
  9 23  1  0  0  0  0
  9 24  1  0  0  0  0
 10 25  1  0  0  0  0
 10 26  1  0  0  0  0
 10 27  1  0  0  0  0
 11 28  1  0  0  0  0
 11 29  1  0  0  0  0
 11 30  1  0  0  0  0
M  CHG  1   1   1
M  END
