19

N          1.07074       -0.04673        0.34896
C          2.21803       -0.00073        0.19799
C          3.63836        0.05691        0.01074
C          4.30437        1.27880        0.05191
C          5.68217        1.31033       -0.13106
N          6.37600        0.16884       -0.35434
C          5.74313       -1.02749       -0.39717
C          4.36677       -1.10810       -0.21470
C          7.84747        0.23122       -0.54373
C          8.15607        0.59584       -1.98208
H          3.75899        2.20601        0.22509
H          6.24086        2.24260       -0.10707
H          6.34647       -1.91337       -0.57883
H          3.87093       -2.07774       -0.24998
H          8.24367        0.97372        0.15707
H          8.27100       -0.74391       -0.28147
H          7.75978        1.58528       -2.23215
H          9.23758        0.61167       -2.14687
H          7.71170       -0.12517       -2.67553
