72

C          1.79644       -0.00862       -0.27588
C          1.15424       -0.78874        0.88858
C          1.57656       -0.19902        2.27852
C          0.87588        1.05832        2.91453
C         -0.56901        0.81159        3.39695
C         -1.51937        1.84560        3.42796
C         -2.84278        1.60233        3.80440
C         -3.25564        0.31188        4.12367
C         -2.31183       -0.69724        4.23071
C         -0.97969       -0.44409        3.88419
O         -4.59732        0.14183        4.30777
C         -5.16014       -1.06438        3.75839
C         -6.29483       -0.68452        2.79179
O         -5.91013       -0.53875        1.40798
C         -4.81721        0.35031        1.19984
C         -4.76315        0.87340       -0.24493
N         -5.95807        1.76746       -0.66744
C         -6.35622        2.84088        0.36876
C         -5.46300        4.04836        0.54799
C         -4.13010        3.96042        0.97532
C         -3.36223        5.11045        1.18022
C         -3.91952        6.36885        0.98055
C         -5.24408        6.48004        0.57244
C         -6.00864        5.33136        0.35661
C         -5.60883        2.43610       -1.99688
C         -7.18481        0.87599       -0.90431
C          1.68808        1.43920        4.18017
C          0.98350        2.25281        1.93947
C         -0.35987       -0.86496        0.65022
C          1.71022       -2.23291        0.82195
H          1.35743        0.98291       -0.40428
H          1.65566       -0.53766       -1.22636
H          2.87520        0.11253       -0.12859
H          1.55115       -1.01184        3.01568
H          2.65012        0.03418        2.20143
H         -1.25021        2.86528        3.16496
H         -3.55878        2.41936        3.81458
H         -2.58466       -1.68999        4.57832
H         -0.27542       -1.26558        3.98389
H         -4.43384       -1.70100        3.24224
H         -5.57672       -1.61880        4.60582
H         -7.04492       -1.48195        2.79856
H         -6.78868        0.24264        3.10436
H         -4.86828        1.18418        1.89940
H         -3.89186       -0.20542        1.38263
H         -3.85170        1.46037       -0.39470
H         -4.73873        0.03506       -0.95137
H         -7.34498        3.19193        0.04352
H         -6.52543        2.34768        1.33111
H         -3.65426        3.00933        1.18179
H         -2.32942        5.02757        1.51327
H         -3.32614        7.26361        1.15697
H         -5.68612        7.46518        0.43610
H         -7.04823        5.46124        0.05817
H         -5.45099        1.65187       -2.74379
H         -6.44087        3.08203       -2.29262
H         -4.69266        3.02027       -1.87465
H         -6.89435        0.03723       -1.54347
H         -7.56939        0.52899        0.05604
H         -7.95188        1.47527       -1.40556
H          2.72901        1.67252        3.92748
H          1.26668        2.32073        4.67884
H          1.69847        0.62349        4.91250
H          1.99223        2.32956        1.51791
H          0.26881        2.17211        1.11446
H          0.78914        3.20971        2.43797
H         -0.57742       -1.29719       -0.33430
H         -0.85147       -1.50743        1.38606
H         -0.83134        0.12127        0.67028
H          1.48659       -2.70494       -0.14159
H          2.79809       -2.24433        0.95451
H          1.27076       -2.86188        1.60500
