44

N         -0.60214        1.38401       -0.97093
C          0.00704        0.99769        0.18463
O         -0.08724       -0.15058        0.59547
C          0.79159        2.08268        0.87471
C          1.50940        1.57369        2.12056
N          2.58920        0.60747        1.82910
C          2.54149       -0.72501        2.08418
C          1.45940       -1.47819        2.79963
N          3.69308       -1.26055        1.60437
C          4.47155       -0.27137        1.01016
C          3.79191        0.93121        1.20544
C          4.31538        2.15428        0.78801
C          5.55521        2.10978        0.13854
C          6.23103        0.89591       -0.07688
C          5.70328       -0.32678        0.35765
C          4.02962       -2.69884        1.63230
C          4.10632       -3.28163        3.03205
O          3.15436       -3.86331        3.54821
C          5.37916       -3.17721        3.78178
C          6.09882       -1.98057        3.84366
C          7.28828       -1.92398        4.57217
C          7.75442       -3.05654        5.23913
C          7.02844       -4.24608        5.19101
C          5.83619       -4.30689        4.46943
H         -1.16661        0.70023       -1.46342
H         -0.60365        2.33184       -1.32459
H          1.50247        2.50365        0.15696
H          0.09107        2.87478        1.16303
H          1.97582        2.42117        2.63876
H          0.80190        1.14464        2.83362
H          1.82584       -1.66823        3.80893
H          0.54838       -0.88917        2.84641
H          1.27483       -2.39950        2.24665
H          3.79600        3.08949        0.95396
H          6.00863        3.03775       -0.21234
H          7.19257        0.90916       -0.59211
H          6.23422       -1.25641        0.19506
H          3.25864       -3.23623        1.06802
H          4.97513       -2.88810        1.11610
H          5.73972       -1.07209        3.37566
H          7.84805       -0.99321        4.63801
H          8.67818       -3.00888        5.81279
H          7.38743       -5.12330        5.72562
H          5.26860       -5.23590        4.45193
