30

C          1.75339        1.02153       -0.58893
C          0.59834        0.29343       -1.25853
C          1.00210       -1.12598       -1.65887
N         -0.22029       -2.03869       -1.66973
C         -0.43946       -2.65117       -0.38800
C         -0.15000       -3.94968       -0.42516
C          0.29476       -4.37197       -1.77565
N          0.08022       -3.14853       -2.59634
C         -0.98549       -3.25986       -3.60178
C         -0.38520       -5.66952       -2.20978
C         -0.97052       -1.91844        0.80030
H          2.03470        0.52104        0.34404
H          1.46547        2.04871       -0.34494
H          2.63227        1.05547       -1.23978
H         -0.26105        0.30728       -0.58251
H          0.29332        0.84714       -2.15482
H          1.40927       -1.10158       -2.67813
H          1.75566       -1.56535       -0.99342
H         -1.04711       -1.50389       -1.98345
H         -0.22287       -4.62451        0.41854
H          1.37612       -4.55520       -1.73878
H         -1.96213       -3.47375       -3.15327
H         -1.07155       -2.32078       -4.16056
H         -0.74972       -4.03341       -4.33942
H         -0.06246       -5.96706       -3.21280
H         -0.11636       -6.48549       -1.52829
H         -1.47786       -5.59152       -2.20221
H         -0.21762       -1.23139        1.19783
H         -1.86225       -1.34529        0.52826
H         -1.24929       -2.60730        1.60443
