 xtb: 6.7.1 (edcfbbe)
          12202407103D

 72 73  0     0  0            999 V2000
    3.6834    0.0076    1.5343 C   0  0  0  0  0  0  0  0  0  0  0  0
    2.4532   -0.9008    1.6244 C   0  0  0  0  0  0  0  0  0  0  0  0
    2.2206   -1.4219    3.0616 C   0  0  0  0  0  0  0  0  0  0  0  0
    1.5047   -0.5651    4.1331 C   0  0  0  0  0  0  0  0  0  0  0  0
    0.0399   -0.3367    3.8010 C   0  0  0  0  0  0  0  0  0  0  0  0
   -0.5555    0.9205    3.8422 C   0  0  0  0  0  0  0  0  0  0  0  0
   -1.8960    1.0932    3.5622 C   0  0  0  0  0  0  0  0  0  0  0  0
   -2.6959    0.0040    3.2383 C   0  0  0  0  0  0  0  0  0  0  0  0
   -2.1299   -1.2603    3.2108 C   0  0  0  0  0  0  0  0  0  0  0  0
   -0.7843   -1.4145    3.4963 C   0  0  0  0  0  0  0  0  0  0  0  0
   -4.0160    0.2904    2.9570 O   0  0  0  0  0  0  0  0  0  0  0  0
   -4.8941   -0.7785    2.6814 C   0  0  0  0  0  0  0  0  0  0  0  0
   -6.3126   -0.2200    2.5504 C   0  0  0  0  0  0  0  0  0  0  0  0
   -6.5696    0.4117    1.3101 O   0  0  0  0  0  0  0  0  0  0  0  0
   -5.9134    1.6530    1.1406 C   0  0  0  0  0  0  0  0  0  0  0  0
   -5.9798    2.0546   -0.3299 C   0  0  0  0  0  0  0  0  0  0  0  0
   -7.2828    2.6037   -0.8058 N   0  0  0  0  0  0  0  0  0  0  0  0
   -7.5550    3.9605   -0.2189 C   0  0  0  0  0  0  0  0  0  0  0  0
   -6.5172    5.0013   -0.5521 C   0  0  0  0  0  0  0  0  0  0  0  0
   -5.4162    5.1951    0.2774 C   0  0  0  0  0  0  0  0  0  0  0  0
   -4.4721    6.1607   -0.0250 C   0  0  0  0  0  0  0  0  0  0  0  0
   -4.6193    6.9475   -1.1550 C   0  0  0  0  0  0  0  0  0  0  0  0
   -5.7217    6.7755   -1.9752 C   0  0  0  0  0  0  0  0  0  0  0  0
   -6.6665    5.8101   -1.6749 C   0  0  0  0  0  0  0  0  0  0  0  0
   -7.2197    2.7081   -2.2750 C   0  0  0  0  0  0  0  0  0  0  0  0
   -8.3904    1.7007   -0.4470 C   0  0  0  0  0  0  0  0  0  0  0  0
    1.5374   -1.3755    5.4446 C   0  0  0  0  0  0  0  0  0  0  0  0
    2.2578    0.7399    4.3997 C   0  0  0  0  0  0  0  0  0  0  0  0
    1.2410   -0.1714    1.0450 C   0  0  0  0  0  0  0  0  0  0  0  0
    2.7300   -2.1358    0.7534 C   0  0  0  0  0  0  0  0  0  0  0  0
    3.5309    0.9519    2.0451 H   0  0  0  0  0  0  0  0  0  0  0  0
    3.9050    0.2261    0.4915 H   0  0  0  0  0  0  0  0  0  0  0  0
    4.5531   -0.4811    1.9669 H   0  0  0  0  0  0  0  0  0  0  0  0
    1.6639   -2.3561    2.9749 H   0  0  0  0  0  0  0  0  0  0  0  0
    3.2002   -1.6833    3.4690 H   0  0  0  0  0  0  0  0  0  0  0  0
    0.0212    1.7944    4.0957 H   0  0  0  0  0  0  0  0  0  0  0  0
   -2.3438    2.0746    3.5983 H   0  0  0  0  0  0  0  0  0  0  0  0
   -2.7174   -2.1336    2.9736 H   0  0  0  0  0  0  0  0  0  0  0  0
   -0.3821   -2.4153    3.4728 H   0  0  0  0  0  0  0  0  0  0  0  0
   -4.6104   -1.2843    1.7482 H   0  0  0  0  0  0  0  0  0  0  0  0
   -4.8817   -1.5073    3.5010 H   0  0  0  0  0  0  0  0  0  0  0  0
   -7.0284   -1.0420    2.5966 H   0  0  0  0  0  0  0  0  0  0  0  0
   -6.4996    0.4764    3.3773 H   0  0  0  0  0  0  0  0  0  0  0  0
   -6.3603    2.4061    1.8062 H   0  0  0  0  0  0  0  0  0  0  0  0
   -4.8558    1.5610    1.4137 H   0  0  0  0  0  0  0  0  0  0  0  0
   -5.2131    2.8027   -0.5371 H   0  0  0  0  0  0  0  0  0  0  0  0
   -5.7674    1.1554   -0.9117 H   0  0  0  0  0  0  0  0  0  0  0  0
   -8.5289    4.2825   -0.5939 H   0  0  0  0  0  0  0  0  0  0  0  0
   -7.6274    3.8460    0.8634 H   0  0  0  0  0  0  0  0  0  0  0  0
   -5.3019    4.6043    1.1744 H   0  0  0  0  0  0  0  0  0  0  0  0
   -3.6257    6.3028    0.6282 H   0  0  0  0  0  0  0  0  0  0  0  0
   -3.8847    7.7017   -1.3879 H   0  0  0  0  0  0  0  0  0  0  0  0
   -5.8519    7.3979   -2.8463 H   0  0  0  0  0  0  0  0  0  0  0  0
   -7.5339    5.7021   -2.3097 H   0  0  0  0  0  0  0  0  0  0  0  0
   -7.0785    1.7223   -2.7139 H   0  0  0  0  0  0  0  0  0  0  0  0
   -8.1475    3.1286   -2.6587 H   0  0  0  0  0  0  0  0  0  0  0  0
   -6.3927    3.3506   -2.5717 H   0  0  0  0  0  0  0  0  0  0  0  0
   -8.1833    0.6983   -0.8154 H   0  0  0  0  0  0  0  0  0  0  0  0
   -8.5011    1.6387    0.6321 H   0  0  0  0  0  0  0  0  0  0  0  0
   -9.3208    2.0601   -0.8825 H   0  0  0  0  0  0  0  0  0  0  0  0
    2.5631   -1.5055    5.7812 H   0  0  0  0  0  0  0  0  0  0  0  0
    0.9847   -0.8528    6.2224 H   0  0  0  0  0  0  0  0  0  0  0  0
    1.0934   -2.3588    5.3154 H   0  0  0  0  0  0  0  0  0  0  0  0
    3.3131    0.5254    4.5466 H   0  0  0  0  0  0  0  0  0  0  0  0
    2.1621    1.4413    3.5769 H   0  0  0  0  0  0  0  0  0  0  0  0
    1.8849    1.2148    5.3051 H   0  0  0  0  0  0  0  0  0  0  0  0
    1.4334    0.0857    0.0048 H   0  0  0  0  0  0  0  0  0  0  0  0
    0.3550   -0.8005    1.0840 H   0  0  0  0  0  0  0  0  0  0  0  0
    1.0318    0.7457    1.5877 H   0  0  0  0  0  0  0  0  0  0  0  0
    2.9710   -1.8390   -0.2647 H   0  0  0  0  0  0  0  0  0  0  0  0
    3.5695   -2.7026    1.1490 H   0  0  0  0  0  0  0  0  0  0  0  0
    1.8606   -2.7890    0.7186 H   0  0  0  0  0  0  0  0  0  0  0  0
  1  2  1  0  0  0  0
  2  3  1  0  0  0  0
  3  4  1  0  0  0  0
  4  5  1  0  0  0  0
  5  6  4  0  0  0  0
  6  7  4  0  0  0  0
  7  8  4  0  0  0  0
  8  9  4  0  0  0  0
  5 10  4  0  0  0  0
  9 10  4  0  0  0  0
  8 11  1  0  0  0  0
 11 12  1  0  0  0  0
 12 13  1  0  0  0  0
 13 14  1  0  0  0  0
 14 15  1  0  0  0  0
 15 16  1  0  0  0  0
 16 17  1  0  0  0  0
 17 18  1  0  0  0  0
 18 19  1  0  0  0  0
 19 20  4  0  0  0  0
 20 21  4  0  0  0  0
 21 22  4  0  0  0  0
 22 23  4  0  0  0  0
 19 24  4  0  0  0  0
 23 24  4  0  0  0  0
 17 25  1  0  0  0  0
 17 26  1  0  0  0  0
  4 27  1  0  0  0  0
  4 28  1  0  0  0  0
  2 29  1  0  0  0  0
  2 30  1  0  0  0  0
  1 31  1  0  0  0  0
  1 32  1  0  0  0  0
  1 33  1  0  0  0  0
  3 34  1  0  0  0  0
  3 35  1  0  0  0  0
  6 36  1  0  0  0  0
  7 37  1  0  0  0  0
  9 38  1  0  0  0  0
 10 39  1  0  0  0  0
 12 40  1  0  0  0  0
 12 41  1  0  0  0  0
 13 42  1  0  0  0  0
 13 43  1  0  0  0  0
 15 44  1  0  0  0  0
 15 45  1  0  0  0  0
 16 46  1  0  0  0  0
 16 47  1  0  0  0  0
 18 48  1  0  0  0  0
 18 49  1  0  0  0  0
 20 50  1  0  0  0  0
 21 51  1  0  0  0  0
 22 52  1  0  0  0  0
 23 53  1  0  0  0  0
 24 54  1  0  0  0  0
 25 55  1  0  0  0  0
 25 56  1  0  0  0  0
 25 57  1  0  0  0  0
 26 58  1  0  0  0  0
 26 59  1  0  0  0  0
 26 60  1  0  0  0  0
 27 61  1  0  0  0  0
 27 62  1  0  0  0  0
 27 63  1  0  0  0  0
 28 64  1  0  0  0  0
 28 65  1  0  0  0  0
 28 66  1  0  0  0  0
 29 67  1  0  0  0  0
 29 68  1  0  0  0  0
 29 69  1  0  0  0  0
 30 70  1  0  0  0  0
 30 71  1  0  0  0  0
 30 72  1  0  0  0  0
M  CHG  1   1   1
M  END
