25

O          1.14251        0.11630        0.05295
C          0.52796        0.40937        1.29464
C          0.98399       -0.64218        2.26810
C          1.93369       -0.35808        3.24699
C          2.38195       -1.36900        4.09040
N          1.91014       -2.63530        3.97602
C          0.98985       -2.93104        3.02583
C          0.51409       -1.95118        2.16308
C          2.40357       -3.72704        4.87339
C          3.89076       -3.95973        4.63876
C          2.06875       -3.40347        6.32407
H          0.86521        0.80740       -0.57481
H          0.82479        1.41246        1.61741
H         -0.56089        0.38495        1.18192
H          2.34486        0.64505        3.34527
H          3.12823       -1.17030        4.85379
H          0.64401       -3.95823        2.95183
H         -0.20465       -2.21437        1.38835
H          1.86589       -4.64198        4.59638
H          4.49504       -3.09995        4.94490
H          4.23722       -4.82856        5.20804
H          4.09063       -4.14661        3.57835
H          0.99999       -3.19327        6.43728
H          2.31914       -4.24969        6.97240
H          2.62063       -2.53200        6.69009
