 xtb: 6.7.1 (edcfbbe)
          12202407103D

 25 25  0     0  0            999 V2000
   -0.0863   -0.0929    0.2680 O   0  0  0  0  0  0  0  0  0  0  0  0
    0.7336    0.4449    1.2649 C   0  0  0  0  0  0  0  0  0  0  0  0
    1.1758   -0.6353    2.1969 C   0  0  0  0  0  0  0  0  0  0  0  0
    1.9997   -0.3681    3.2934 C   0  0  0  0  0  0  0  0  0  0  0  0
    2.3768   -1.3919    4.1281 C   0  0  0  0  0  0  0  0  0  0  0  0
    1.9741   -2.6534    3.9213 N   0  0  0  0  0  0  0  0  0  0  0  0
    1.1887   -2.9350    2.8754 C   0  0  0  0  0  0  0  0  0  0  0  0
    0.7747   -1.9574    2.0013 C   0  0  0  0  0  0  0  0  0  0  0  0
    2.4001   -3.7209    4.8391 C   0  0  0  0  0  0  0  0  0  0  0  0
    3.9137   -3.8989    4.7667 C   0  0  0  0  0  0  0  0  0  0  0  0
    1.9202   -3.4253    6.2569 C   0  0  0  0  0  0  0  0  0  0  0  0
   -0.3692    0.6007   -0.3374 H   0  0  0  0  0  0  0  0  0  0  0  0
    1.6303    0.9226    0.8372 H   0  0  0  0  0  0  0  0  0  0  0  0
    0.2049    1.2137    1.8521 H   0  0  0  0  0  0  0  0  0  0  0  0
    2.3436    0.6344    3.4939 H   0  0  0  0  0  0  0  0  0  0  0  0
    3.0108   -1.2083    4.9811 H   0  0  0  0  0  0  0  0  0  0  0  0
    0.8886   -3.9639    2.7420 H   0  0  0  0  0  0  0  0  0  0  0  0
    0.1404   -2.1966    1.1629 H   0  0  0  0  0  0  0  0  0  0  0  0
    1.9201   -4.6399    4.4905 H   0  0  0  0  0  0  0  0  0  0  0  0
    4.4406   -3.0332    5.1585 H   0  0  0  0  0  0  0  0  0  0  0  0
    4.1983   -4.7618    5.3616 H   0  0  0  0  0  0  0  0  0  0  0  0
    4.2357   -4.0722    3.7426 H   0  0  0  0  0  0  0  0  0  0  0  0
    0.8550   -3.2069    6.2685 H   0  0  0  0  0  0  0  0  0  0  0  0
    2.0919   -4.2994    6.8780 H   0  0  0  0  0  0  0  0  0  0  0  0
    2.4554   -2.5912    6.7017 H   0  0  0  0  0  0  0  0  0  0  0  0
  1  2  1  0  0  0  0
  2  3  1  0  0  0  0
  3  4  4  0  0  0  0
  4  5  4  0  0  0  0
  5  6  4  0  0  0  0
  6  7  4  0  0  0  0
  3  8  4  0  0  0  0
  7  8  4  0  0  0  0
  6  9  1  0  0  0  0
  9 10  1  0  0  0  0
  9 11  1  0  0  0  0
  1 12  1  0  0  0  0
  2 13  1  0  0  0  0
  2 14  1  0  0  0  0
  4 15  1  0  0  0  0
  5 16  1  0  0  0  0
  7 17  1  0  0  0  0
  8 18  1  0  0  0  0
  9 19  1  0  0  0  0
 10 20  1  0  0  0  0
 10 21  1  0  0  0  0
 10 22  1  0  0  0  0
 11 23  1  0  0  0  0
 11 24  1  0  0  0  0
 11 25  1  0  0  0  0
M  CHG  1   1   1
M  END
