37

C          1.33324        0.04780        0.11025
N          0.67024        0.98988       -0.88289
C          0.98484        0.55458       -2.33499
C          0.54500       -0.82982       -2.74344
C         -0.70695       -1.03658       -3.34536
C         -1.11814       -2.32117       -3.70501
C         -0.28248       -3.41149       -3.47792
C          0.96964       -3.21991       -2.89990
C          1.38415       -1.93717       -2.53845
C         -0.85816        1.01399       -0.67098
C         -1.34928        1.48501        0.67711
C         -1.61430        2.84325        0.91466
C         -2.05662        3.27040        2.16797
C         -2.24951        2.34775        3.19308
C         -2.00760        0.99524        2.96696
C         -1.56250        0.56465        1.71653
C          1.25816        2.38409       -0.69071
H          0.82297       -0.91846        0.08402
H          1.26513        0.48029        1.11250
H          2.38652       -0.06068       -0.16572
H          0.52668        1.30298       -2.99486
H          2.07148        0.64362       -2.46525
H         -1.37695       -0.20433       -3.55269
H         -2.08879       -2.47545       -4.17294
H         -0.60192       -4.41147       -3.76502
H          1.62596       -4.07352       -2.74125
H          2.37627       -1.81936       -2.10665
H         -1.27904        1.64852       -1.46150
H         -1.22692       -0.00373       -0.83985
H         -1.49228        3.58629        0.12929
H         -2.26310        4.32402        2.34692
H         -2.60267        2.68136        4.16688
H         -2.17740        0.27591        3.76574
H         -1.39986       -0.50115        1.56458
H          1.14376        2.68513        0.35370
H          2.32309        2.34795       -0.94146
H          0.73542        3.07708       -1.35651
