34

C          1.28975        0.06622        0.28831
C          0.41224       -0.78884        0.83177
C         -0.99966       -0.96440        0.36272
O         -1.29500       -2.35609        0.15672
N         -1.13680       -2.72089       -1.18600
C          0.04540       -2.72859       -1.88672
C         -0.25362       -3.26717       -3.10840
N         -1.60285       -3.61101       -3.08741
C         -2.10241       -3.34342       -1.86790
C         -2.37025       -4.19077       -4.18851
C         -2.68801       -5.62511       -3.86078
C         -3.95020       -5.97704       -3.32386
C         -4.25246       -7.30578       -3.00714
C         -3.28506       -8.25783       -3.23984
C         -2.05713       -7.92758       -3.75809
C         -1.72437       -6.62647       -4.07235
O         -1.25173       -9.01073       -3.91574
C         -2.12835      -10.07044       -3.47065
O         -3.40765       -9.59009       -3.00492
H          1.03309        0.70798       -0.54993
H          2.29337        0.16558        0.69574
H          0.71946       -1.38046        1.69256
H         -1.67686       -0.61231        1.14793
H         -1.22239       -0.38664       -0.54226
H          0.94756       -2.36237       -1.43283
H          0.32670       -3.46997       -3.99252
H         -3.10395       -3.55152       -1.51220
H         -3.28283       -3.59934       -4.32324
H         -1.79578       -4.12328       -5.11921
H         -4.71723       -5.22133       -3.16195
H         -5.21966       -7.58711       -2.60278
H         -0.74444       -6.40688       -4.48382
H         -2.29481      -10.76244       -4.30455
H         -1.63740      -10.61152       -2.65403
