 xtb: 6.7.1 (edcfbbe)
          12202407103D

 24 24  0     0  0            999 V2000
    1.3025   -0.3142    0.1773 C   0  0  0  0  0  0  0  0  0  0  0  0
    0.3064   -0.1757    1.3246 C   0  0  0  0  0  0  0  0  0  0  0  0
    0.6772    0.8828    2.2383 N   0  0  0  0  0  0  0  0  0  0  0  0
    0.4385    2.1763    2.1337 C   0  0  0  0  0  0  0  0  0  0  0  0
   -0.3651    2.8206    1.0746 C   0  0  0  0  0  0  0  0  0  0  0  0
    1.0082    2.8656    3.1057 N   0  0  0  0  0  0  0  0  0  0  0  0
    0.8935    4.2789    3.3436 C   0  0  0  0  0  0  0  0  0  0  0  0
    1.7207    1.9897    4.0255 C   0  0  0  0  0  0  0  0  0  0  0  0
    1.5242    0.6040    3.3930 C   0  0  0  0  0  0  0  0  0  0  0  0
    1.3612    0.6035   -0.4019 H   0  0  0  0  0  0  0  0  0  0  0  0
    0.9838   -1.1160   -0.4816 H   0  0  0  0  0  0  0  0  0  0  0  0
    2.2941   -0.5560    0.5497 H   0  0  0  0  0  0  0  0  0  0  0  0
   -0.6951    0.0183    0.9355 H   0  0  0  0  0  0  0  0  0  0  0  0
    0.2692   -1.1025    1.9002 H   0  0  0  0  0  0  0  0  0  0  0  0
    0.2742    3.4518    0.4568 H   0  0  0  0  0  0  0  0  0  0  0  0
   -0.8468    2.0905    0.4327 H   0  0  0  0  0  0  0  0  0  0  0  0
   -1.1263    3.4606    1.5191 H   0  0  0  0  0  0  0  0  0  0  0  0
    0.9660    4.8331    2.4090 H   0  0  0  0  0  0  0  0  0  0  0  0
   -0.0564    4.5212    3.8264 H   0  0  0  0  0  0  0  0  0  0  0  0
    1.7036    4.5929    3.9983 H   0  0  0  0  0  0  0  0  0  0  0  0
    1.2864    2.0615    5.0264 H   0  0  0  0  0  0  0  0  0  0  0  0
    2.7721    2.2827    4.0835 H   0  0  0  0  0  0  0  0  0  0  0  0
    2.4657    0.1541    3.0679 H   0  0  0  0  0  0  0  0  0  0  0  0
    1.0199   -0.0979    4.0618 H   0  0  0  0  0  0  0  0  0  0  0  0
  1  2  1  0  0  0  0
  2  3  1  0  0  0  0
  3  4  4  0  0  0  0
  4  5  1  0  0  0  0
  4  6  4  0  0  0  0
  6  7  1  0  0  0  0
  6  8  1  0  0  0  0
  3  9  1  0  0  0  0
  8  9  1  0  0  0  0
  1 10  1  0  0  0  0
  1 11  1  0  0  0  0
  1 12  1  0  0  0  0
  2 13  1  0  0  0  0
  2 14  1  0  0  0  0
  5 15  1  0  0  0  0
  5 16  1  0  0  0  0
  5 17  1  0  0  0  0
  7 18  1  0  0  0  0
  7 19  1  0  0  0  0
  7 20  1  0  0  0  0
  8 21  1  0  0  0  0
  8 22  1  0  0  0  0
  9 23  1  0  0  0  0
  9 24  1  0  0  0  0
M  CHG  1   1   1
M  END
