18

C          0.83888       -0.02028        0.04077
N          0.57909        1.36016       -0.35650
N         -0.46095        1.77318       -1.18149
N         -0.25553        3.17566       -1.40682
N          0.70995        3.54922       -0.52896
C          1.18980        2.46262        0.04076
C          2.27647        2.52548        1.01949
N         -1.40226        3.93524       -1.17091
H          0.21429       -0.70228       -0.54384
H          0.60655       -0.14237        1.10224
H          1.89006       -0.26105       -0.14020
H         -0.46631        1.23252       -2.05058
H          0.98134        4.49214       -0.29115
H          3.17961        2.93402        0.55526
H          1.99727        3.17683        1.85380
H          2.52632        1.54498        1.43273
H         -1.39974        4.77807       -1.74842
H         -2.23736        3.42441       -1.46074
