 xtb: 6.7.1 (edcfbbe)
          12202407103D

 20 20  0     0  0            999 V2000
    0.9725    0.1318   -0.3941 C   0  0  0  0  0  0  0  0  0  0  0  0
    0.2306   -0.9618   -0.4292 C   0  0  0  0  0  0  0  0  0  0  0  0
   -1.1628   -0.9771   -0.6145 N   0  0  0  0  0  0  0  0  0  0  0  0
   -1.9867    0.0810   -0.8814 C   0  0  0  0  0  0  0  0  0  0  0  0
   -3.2538   -0.4062   -0.9704 C   0  0  0  0  0  0  0  0  0  0  0  0
   -3.1943   -1.7496   -0.7525 N   0  0  0  0  0  0  0  0  0  0  0  0
   -1.9229   -2.0743   -0.5462 C   0  0  0  0  0  0  0  0  0  0  0  0
   -4.3157   -2.6623   -0.8115 C   0  0  0  0  0  0  0  0  0  0  0  0
   -4.6022   -3.0741   -2.2524 C   0  0  0  0  0  0  0  0  0  0  0  0
    0.5763    1.1260   -0.5027 H   0  0  0  0  0  0  0  0  0  0  0  0
    2.0345    0.0562   -0.2474 H   0  0  0  0  0  0  0  0  0  0  0  0
    0.6519   -1.9491   -0.3088 H   0  0  0  0  0  0  0  0  0  0  0  0
   -1.6350    1.0849   -0.9938 H   0  0  0  0  0  0  0  0  0  0  0  0
   -4.1742    0.1062   -1.1649 H   0  0  0  0  0  0  0  0  0  0  0  0
   -1.5618   -3.0650   -0.3462 H   0  0  0  0  0  0  0  0  0  0  0  0
   -4.0801   -3.5398   -0.2062 H   0  0  0  0  0  0  0  0  0  0  0  0
   -5.1860   -2.1607   -0.3830 H   0  0  0  0  0  0  0  0  0  0  0  0
   -3.7485   -3.5878   -2.6879 H   0  0  0  0  0  0  0  0  0  0  0  0
   -5.4524   -3.7490   -2.2690 H   0  0  0  0  0  0  0  0  0  0  0  0
   -4.8408   -2.2079   -2.8645 H   0  0  0  0  0  0  0  0  0  0  0  0
  1  2  2  0  0  0  0
  2  3  1  0  0  0  0
  3  4  4  0  0  0  0
  4  5  2  0  0  0  0
  5  6  4  0  0  0  0
  3  7  4  0  0  0  0
  6  7  4  0  0  0  0
  6  8  1  0  0  0  0
  8  9  1  0  0  0  0
  1 10  1  0  0  0  0
  1 11  1  0  0  0  0
  2 12  1  0  0  0  0
  4 13  1  0  0  0  0
  5 14  1  0  0  0  0
  7 15  1  0  0  0  0
  8 16  1  0  0  0  0
  8 17  1  0  0  0  0
  9 18  1  0  0  0  0
  9 19  1  0  0  0  0
  9 20  1  0  0  0  0
M  CHG  1   1   1
M  END
