 xtb: 6.7.1 (edcfbbe)
          12202407103D

 33 32  0     0  0            999 V2000
    1.3542    0.0989   -0.0232 C   0  0  0  0  0  0  0  0  0  0  0  0
    0.3799    0.1279    1.1468 C   0  0  0  0  0  0  0  0  0  0  0  0
    0.5879    1.2436    2.1747 C   0  0  0  0  0  0  0  0  0  0  0  0
   -0.0943    2.5690    1.8162 C   0  0  0  0  0  0  0  0  0  0  0  0
   -1.6010    2.5637    2.0947 C   0  0  0  0  0  0  0  0  0  0  0  0
   -1.9774    2.6269    3.5766 C   0  0  0  0  0  0  0  0  0  0  0  0
   -1.5927    3.9253    4.2890 C   0  0  0  0  0  0  0  0  0  0  0  0
   -2.2889    5.1570    3.7221 C   0  0  0  0  0  0  0  0  0  0  0  0
    1.0236    1.3033   -1.3730 S   0  0  0  0  0  0  0  0  0  0  0  0
    2.0243    2.6778   -1.0670 C   0  0  0  0  0  0  0  0  0  0  0  0
    2.7238    2.8320    0.0436 N   0  0  0  0  0  0  0  0  0  0  0  0
    2.0730    3.5849   -2.0320 N   0  0  0  0  0  0  0  0  0  0  0  0
    1.2508   -0.8506   -0.5513 H   0  0  0  0  0  0  0  0  0  0  0  0
    2.3947    0.2026    0.2819 H   0  0  0  0  0  0  0  0  0  0  0  0
   -0.6407    0.1683    0.7646 H   0  0  0  0  0  0  0  0  0  0  0  0
    0.4954   -0.8345    1.6507 H   0  0  0  0  0  0  0  0  0  0  0  0
    0.1781    0.9044    3.1258 H   0  0  0  0  0  0  0  0  0  0  0  0
    1.6607    1.3886    2.3473 H   0  0  0  0  0  0  0  0  0  0  0  0
    0.3651    3.3735    2.3916 H   0  0  0  0  0  0  0  0  0  0  0  0
    0.0519    2.7967    0.7577 H   0  0  0  0  0  0  0  0  0  0  0  0
   -2.0500    3.4149    1.5822 H   0  0  0  0  0  0  0  0  0  0  0  0
   -2.0437    1.6622    1.6658 H   0  0  0  0  0  0  0  0  0  0  0  0
   -3.0595    2.5036    3.6500 H   0  0  0  0  0  0  0  0  0  0  0  0
   -1.5226    1.7888    4.1091 H   0  0  0  0  0  0  0  0  0  0  0  0
   -1.8693    3.8215    5.3398 H   0  0  0  0  0  0  0  0  0  0  0  0
   -0.5105    4.0698    4.2571 H   0  0  0  0  0  0  0  0  0  0  0  0
   -3.3665    5.0130    3.7130 H   0  0  0  0  0  0  0  0  0  0  0  0
   -2.0671    6.0270    4.3351 H   0  0  0  0  0  0  0  0  0  0  0  0
   -1.9608    5.3698    2.7072 H   0  0  0  0  0  0  0  0  0  0  0  0
    3.2997    3.6487    0.1859 H   0  0  0  0  0  0  0  0  0  0  0  0
    2.5852    2.2154    0.8323 H   0  0  0  0  0  0  0  0  0  0  0  0
    1.5656    3.4409   -2.8912 H   0  0  0  0  0  0  0  0  0  0  0  0
    2.6126    4.4329   -1.9428 H   0  0  0  0  0  0  0  0  0  0  0  0
  1  2  1  0  0  0  0
  2  3  1  0  0  0  0
  3  4  1  0  0  0  0
  4  5  1  0  0  0  0
  5  6  1  0  0  0  0
  6  7  1  0  0  0  0
  7  8  1  0  0  0  0
  1  9  1  0  0  0  0
  9 10  1  0  0  0  0
 10 11  4  0  0  0  0
 10 12  4  0  0  0  0
  1 13  1  0  0  0  0
  1 14  1  0  0  0  0
  2 15  1  0  0  0  0
  2 16  1  0  0  0  0
  3 17  1  0  0  0  0
  3 18  1  0  0  0  0
  4 19  1  0  0  0  0
  4 20  1  0  0  0  0
  5 21  1  0  0  0  0
  5 22  1  0  0  0  0
  6 23  1  0  0  0  0
  6 24  1  0  0  0  0
  7 25  1  0  0  0  0
  7 26  1  0  0  0  0
  8 27  1  0  0  0  0
  8 28  1  0  0  0  0
  8 29  1  0  0  0  0
 11 30  1  0  0  0  0
 11 31  1  0  0  0  0
 12 32  1  0  0  0  0
 12 33  1  0  0  0  0
M  CHG  1   1   1
M  END
