 xtb: 6.7.1 (edcfbbe)
          12202407103D

 14 13  0     0  0            999 V2000
    1.1690   -0.0295   -0.2021 C   0  0  0  0  0  0  0  0  0  0  0  0
    0.9393   -0.2418   -1.6041 O   0  0  0  0  0  0  0  0  0  0  0  0
    0.8969    0.8469   -2.3693 C   0  0  0  0  0  0  0  0  0  0  0  0
    1.0360    1.9730   -2.0208 O   0  0  0  0  0  0  0  0  0  0  0  0
    0.6002    0.4456   -3.8333 C   0  0  0  0  0  0  0  0  0  0  0  0
    0.7905   -1.0112   -4.0463 N   0  0  0  0  0  0  0  0  0  0  0  0
    1.0567   -1.0010    0.2704 H   0  0  0  0  0  0  0  0  0  0  0  0
    0.4435    0.6807    0.1934 H   0  0  0  0  0  0  0  0  0  0  0  0
    2.1740    0.3620   -0.0450 H   0  0  0  0  0  0  0  0  0  0  0  0
   -0.4362    0.7232   -4.0427 H   0  0  0  0  0  0  0  0  0  0  0  0
    1.2456    1.0285   -4.4930 H   0  0  0  0  0  0  0  0  0  0  0  0
    0.3434   -1.5137   -3.2619 H   0  0  0  0  0  0  0  0  0  0  0  0
    0.3867   -1.3214   -4.9397 H   0  0  0  0  0  0  0  0  0  0  0  0
    1.7918   -1.2494   -4.0322 H   0  0  0  0  0  0  0  0  0  0  0  0
  1  2  1  0  0  0  0
  2  3  1  0  0  0  0
  3  4  2  0  0  0  0
  3  5  1  0  0  0  0
  5  6  1  0  0  0  0
  1  7  1  0  0  0  0
  1  8  1  0  0  0  0
  1  9  1  0  0  0  0
  5 10  1  0  0  0  0
  5 11  1  0  0  0  0
  6 12  1  0  0  0  0
  6 13  1  0  0  0  0
  6 14  1  0  0  0  0
M  CHG  1   1   1
M  END
