 xtb: 6.7.1 (edcfbbe)
          12202407103D

 19 20  0     0  0            999 V2000
    1.1375   -0.0354    0.3151 N   0  0  0  0  0  0  0  0  0  0  0  0
    2.2427   -0.1282    0.1333 N   0  0  0  0  0  0  0  0  0  0  0  0
    3.4118   -0.3205    0.0824 N   0  0  0  0  0  0  0  0  0  0  0  0
    4.2684   -0.0490   -1.0241 C   0  0  0  0  0  0  0  0  0  0  0  0
    3.9213   -0.9244   -2.2527 C   0  0  0  0  0  0  0  0  0  0  0  0
    2.5081   -0.8794   -2.5321 N   0  0  0  0  0  0  0  0  0  0  0  0
    1.7483    0.1561   -2.9021 C   0  0  0  0  0  0  0  0  0  0  0  0
    0.4750   -0.2585   -2.8683 N   0  0  0  0  0  0  0  0  0  0  0  0
    0.5216   -1.5658   -2.4755 C   0  0  0  0  0  0  0  0  0  0  0  0
    1.7503   -1.9294   -2.2723 N   0  0  0  0  0  0  0  0  0  0  0  0
   -0.6235    0.4268   -3.2533 N   0  0  0  0  0  0  0  0  0  0  0  0
    4.2238    1.0148   -1.2927 H   0  0  0  0  0  0  0  0  0  0  0  0
    5.2847   -0.2829   -0.7039 H   0  0  0  0  0  0  0  0  0  0  0  0
    4.4938   -0.5845   -3.1174 H   0  0  0  0  0  0  0  0  0  0  0  0
    4.1499   -1.9717   -2.0449 H   0  0  0  0  0  0  0  0  0  0  0  0
    2.0897    1.1327   -3.1823 H   0  0  0  0  0  0  0  0  0  0  0  0
   -0.3293   -2.2034   -2.3483 H   0  0  0  0  0  0  0  0  0  0  0  0
   -0.5537    1.4335   -3.1713 H   0  0  0  0  0  0  0  0  0  0  0  0
   -1.4909    0.0457   -2.8957 H   0  0  0  0  0  0  0  0  0  0  0  0
  1  2  2  0  0  0  0
  1  3  1  0  0  0  0
  2  3  2  0  0  0  0
  3  4  1  0  0  0  0
  4  5  1  0  0  0  0
  5  6  1  0  0  0  0
  6  7  4  0  0  0  0
  7  8  4  0  0  0  0
  8  9  4  0  0  0  0
  6 10  4  0  0  0  0
  9 10  2  0  0  0  0
  8 11  1  0  0  0  0
  4 12  1  0  0  0  0
  4 13  1  0  0  0  0
  5 14  1  0  0  0  0
  5 15  1  0  0  0  0
  7 16  1  0  0  0  0
  9 17  1  0  0  0  0
 11 18  1  0  0  0  0
 11 19  1  0  0  0  0
M  CHG  1   1   1
M  END
