 xtb: 6.7.1 (edcfbbe)
          12202407103D

 18 18  0     0  0            999 V2000
    0.5897    0.1054    0.0721 C   0  0  0  0  0  0  0  0  0  0  0  0
    0.6253    1.4449   -0.4390 N   0  0  0  0  0  0  0  0  0  0  0  0
   -0.1813    1.7912   -1.5543 N   0  0  0  0  0  0  0  0  0  0  0  0
   -0.1701    3.2289   -1.6235 N   0  0  0  0  0  0  0  0  0  0  0  0
    0.9378    3.5526   -0.7605 N   0  0  0  0  0  0  0  0  0  0  0  0
    1.2739    2.5091   -0.0083 C   0  0  0  0  0  0  0  0  0  0  0  0
    2.2223    2.5359    1.1151 C   0  0  0  0  0  0  0  0  0  0  0  0
   -1.3081    3.8324   -1.1373 N   0  0  0  0  0  0  0  0  0  0  0  0
   -0.4074   -0.2997   -0.0939 H   0  0  0  0  0  0  0  0  0  0  0  0
    0.8068    0.1045    1.1378 H   0  0  0  0  0  0  0  0  0  0  0  0
    1.3149   -0.5246   -0.4474 H   0  0  0  0  0  0  0  0  0  0  0  0
    0.2100    1.4053   -2.4173 H   0  0  0  0  0  0  0  0  0  0  0  0
    1.1986    4.5193   -0.6564 H   0  0  0  0  0  0  0  0  0  0  0  0
    2.7854    3.4650    1.1154 H   0  0  0  0  0  0  0  0  0  0  0  0
    1.6827    2.4639    2.0605 H   0  0  0  0  0  0  0  0  0  0  0  0
    2.9120    1.6960    1.0595 H   0  0  0  0  0  0  0  0  0  0  0  0
   -1.9487    4.0501   -1.8879 H   0  0  0  0  0  0  0  0  0  0  0  0
   -1.7764    3.3583   -0.3691 H   0  0  0  0  0  0  0  0  0  0  0  0
  1  2  1  0  0  0  0
  2  3  1  0  0  0  0
  3  4  1  0  0  0  0
  4  5  1  0  0  0  0
  2  6  4  0  0  0  0
  5  6  4  0  0  0  0
  6  7  1  0  0  0  0
  4  8  1  0  0  0  0
  1  9  1  0  0  0  0
  1 10  1  0  0  0  0
  1 11  1  0  0  0  0
  3 12  1  0  0  0  0
  5 13  1  0  0  0  0
  7 14  1  0  0  0  0
  7 15  1  0  0  0  0
  7 16  1  0  0  0  0
  8 17  1  0  0  0  0
  8 18  1  0  0  0  0
M  CHG  1   1   1
M  END
