33

C          1.52290        0.03827        0.04840
C          0.40565        0.19414        1.08674
C          0.56824        1.39555        2.02826
C         -0.30154        2.59823        1.65391
C         -1.77108        2.47590        2.06780
C         -2.04663        2.62304        3.56808
C         -1.56142        3.92494        4.21361
C         -2.06074        5.18262        3.51817
S          1.39483        1.12991       -1.39917
C          2.07260        2.61760       -0.88039
N          3.21551        2.65936       -0.24300
N          1.42316        3.70904       -1.19021
H          1.46723       -0.98129       -0.35016
H          2.50823        0.12709        0.51557
H         -0.57879        0.18229        0.60532
H          0.44110       -0.70743        1.71351
H          0.32609        1.07933        3.04956
H          1.61958        1.70494        2.05493
H          0.13768        3.50098        2.09101
H         -0.27854        2.74605        0.57212
H         -2.34435        3.23989        1.52870
H         -2.17187        1.51248        1.73155
H         -3.13079        2.54408        3.72020
H         -1.60468        1.77873        4.10957
H         -1.90734        3.94131        5.25437
H         -0.46672        3.94167        4.25497
H         -3.15052        5.17281        3.41872
H         -1.77989        6.06887        4.09624
H         -1.62307        5.28979        2.52102
H          3.63523        3.52744        0.05745
H          3.72535        1.80199       -0.07653
H          0.55694        3.61087       -1.71071
H          1.73910        4.63721       -0.94929
