19

N          1.48501        0.34631        0.68487
N          2.52227       -0.09180        0.51253
N          3.64567       -0.55660        0.24958
C          4.27465       -0.07421       -0.99160
C          3.87774       -0.94300       -2.18968
N          2.44727       -0.87423       -2.47668
C          1.70358        0.15845       -2.90568
N          0.44832       -0.30257       -2.98814
C          0.50253       -1.63778       -2.67091
N          1.68663       -2.01891       -2.34615
N         -0.70610        0.43050       -3.40218
H          4.01637        0.97610       -1.17570
H          5.36130       -0.12110       -0.86212
H          4.40758       -0.60662       -3.08748
H          4.15501       -1.98783       -2.00754
H          2.04815        1.16023       -3.12605
H         -0.39187       -2.24128       -2.71123
H         -0.66241        1.43346       -3.21934
H         -1.59212        0.02738       -3.09261
