 xtb: 6.7.1 (edcfbbe)
          12202407103D

 17 16  0     0  0            999 V2000
    0.9607   -0.0097   -0.1506 N   0  0  0  0  0  0  0  0  0  0  0  0
    0.4820   -1.3921    0.1581 C   0  0  0  0  0  0  0  0  0  0  0  0
    0.9733   -1.8452    1.5349 C   0  0  0  0  0  0  0  0  0  0  0  0
    0.4645   -0.9126    2.6327 C   0  0  0  0  0  0  0  0  0  0  0  0
    0.4874   -3.2729    1.7755 C   0  0  0  0  0  0  0  0  0  0  0  0
    0.6573    0.6130    0.6122 H   0  0  0  0  0  0  0  0  0  0  0  0
    0.5858    0.3334   -1.0425 H   0  0  0  0  0  0  0  0  0  0  0  0
    1.9879    0.0068   -0.1924 H   0  0  0  0  0  0  0  0  0  0  0  0
   -0.6093   -1.3887    0.1383 H   0  0  0  0  0  0  0  0  0  0  0  0
    0.8423   -2.0687   -0.6177 H   0  0  0  0  0  0  0  0  0  0  0  0
    2.0683   -1.8464    1.5402 H   0  0  0  0  0  0  0  0  0  0  0  0
   -0.6184   -0.8199    2.5908 H   0  0  0  0  0  0  0  0  0  0  0  0
    0.7186   -1.3266    3.6040 H   0  0  0  0  0  0  0  0  0  0  0  0
    0.9139    0.0791    2.5888 H   0  0  0  0  0  0  0  0  0  0  0  0
    0.8399   -3.9423    0.9959 H   0  0  0  0  0  0  0  0  0  0  0  0
    0.8610   -3.6379    2.7267 H   0  0  0  0  0  0  0  0  0  0  0  0
   -0.5982   -3.3101    1.8008 H   0  0  0  0  0  0  0  0  0  0  0  0
  1  2  1  0  0  0  0
  2  3  1  0  0  0  0
  3  4  1  0  0  0  0
  3  5  1  0  0  0  0
  1  6  1  0  0  0  0
  1  7  1  0  0  0  0
  1  8  1  0  0  0  0
  2  9  1  0  0  0  0
  2 10  1  0  0  0  0
  3 11  1  0  0  0  0
  4 12  1  0  0  0  0
  4 13  1  0  0  0  0
  4 14  1  0  0  0  0
  5 15  1  0  0  0  0
  5 16  1  0  0  0  0
  5 17  1  0  0  0  0
M  CHG  1   1   1
M  END
