 xtb: 6.7.1 (edcfbbe)
          12202407113D

 22 21  0     0  0            999 V2000
    1.1835   -0.1547   -0.2574 C   0  0  0  0  0  0  0  0  0  0  0  0
    0.5294   -1.4364   -0.0550 N   0  0  0  0  0  0  0  0  0  0  0  0
   -0.2331   -1.8818    0.9569 C   0  0  0  0  0  0  0  0  0  0  0  0
   -0.7048   -3.1421    0.8543 N   0  0  0  0  0  0  0  0  0  0  0  0
   -0.6006   -1.2379    2.0795 N   0  0  0  0  0  0  0  0  0  0  0  0
   -0.3223    0.0981    2.5780 C   0  0  0  0  0  0  0  0  0  0  0  0
   -1.4459   -1.9507    3.0392 C   0  0  0  0  0  0  0  0  0  0  0  0
    0.8542   -2.2477   -1.2264 C   0  0  0  0  0  0  0  0  0  0  0  0
    1.0374    0.5631    0.5309 H   0  0  0  0  0  0  0  0  0  0  0  0
    0.8138    0.2893   -1.1841 H   0  0  0  0  0  0  0  0  0  0  0  0
    2.2580   -0.3181   -0.3632 H   0  0  0  0  0  0  0  0  0  0  0  0
   -1.2799   -3.5438    1.5688 H   0  0  0  0  0  0  0  0  0  0  0  0
   -0.5025   -3.7261    0.0665 H   0  0  0  0  0  0  0  0  0  0  0  0
   -1.2679    0.6257    2.7186 H   0  0  0  0  0  0  0  0  0  0  0  0
    0.1823    0.0160    3.5429 H   0  0  0  0  0  0  0  0  0  0  0  0
    0.2964    0.7062    1.9394 H   0  0  0  0  0  0  0  0  0  0  0  0
   -2.4103   -2.2200    2.6035 H   0  0  0  0  0  0  0  0  0  0  0  0
   -0.9451   -2.8361    3.4365 H   0  0  0  0  0  0  0  0  0  0  0  0
   -1.6465   -1.2924    3.8791 H   0  0  0  0  0  0  0  0  0  0  0  0
    0.4955   -1.7342   -2.1204 H   0  0  0  0  0  0  0  0  0  0  0  0
    1.9392   -2.3414   -1.2997 H   0  0  0  0  0  0  0  0  0  0  0  0
    0.4413   -3.2482   -1.2402 H   0  0  0  0  0  0  0  0  0  0  0  0
  1  2  1  0  0  0  0
  2  3  4  0  0  0  0
  3  4  4  0  0  0  0
  3  5  4  0  0  0  0
  5  6  1  0  0  0  0
  5  7  1  0  0  0  0
  2  8  1  0  0  0  0
  1  9  1  0  0  0  0
  1 10  1  0  0  0  0
  1 11  1  0  0  0  0
  4 12  1  0  0  0  0
  4 13  1  0  0  0  0
  6 14  1  0  0  0  0
  6 15  1  0  0  0  0
  6 16  1  0  0  0  0
  7 17  1  0  0  0  0
  7 18  1  0  0  0  0
  7 19  1  0  0  0  0
  8 20  1  0  0  0  0
  8 21  1  0  0  0  0
  8 22  1  0  0  0  0
M  CHG  1   1   1
M  END
