40

N          0.93964        0.05293       -0.05963
C          2.20061        0.05293       -0.05963
C          3.72061        0.05293       -0.05963
C          4.23062       -0.31982       -1.44511
N          3.80880        0.62562       -2.49014
C          2.86998        0.37171       -3.41303
N          2.78088        1.43405       -4.22691
C          3.60615        2.46969       -3.75314
C          4.31000        1.89674       -2.70990
C          3.76467        3.88126       -4.23054
C          2.67805        4.57392       -4.77110
C          2.83234        5.89344       -5.20274
C          4.06691        6.52783       -5.08685
C          5.14755        5.84980       -4.52784
C          4.99811        4.53139       -4.09145
C          2.06879        1.35766       -5.50871
C          2.97427        0.67572       -6.50421
C          3.96662        1.40846       -7.17537
C          4.83056        0.77753       -8.07108
C          4.71554       -0.59059       -8.30426
C          3.73447       -1.32956       -7.64643
C          2.86692       -0.70199       -6.75029
H          4.07392        1.04852        0.22897
H          4.08117       -0.66668        0.68256
H          5.32655       -0.34566       -1.44635
H          3.88095       -1.31932       -1.73116
H          2.31491       -0.55424       -3.51536
H          5.07454        2.26820       -2.04791
H          1.68413        4.13992       -4.81470
H          1.98409        6.43688       -5.61504
H          4.18358        7.55683       -5.42177
H          6.10854        6.35229       -4.43471
H          5.87058        4.03187       -3.67819
H          1.14589        0.78470       -5.36016
H          1.77366        2.33828       -5.87860
H          4.07343        2.47994       -7.01588
H          5.59079        1.35367       -8.59464
H          5.38553       -1.07966       -9.00845
H          3.64251       -2.39585       -7.84312
H          2.10179       -1.30209       -6.26281
