39

C          0.62445        0.01500        0.83031
O         -0.01130       -1.23860        0.60119
C          0.48862       -1.98417       -0.42788
C         -0.40820       -2.88725       -0.99743
C         -0.01877       -3.69260       -2.07000
C          1.28565       -3.61544       -2.57370
C          2.19252       -2.72557       -1.98557
C          1.79492       -1.91894       -0.91065
C          1.63147       -4.46277       -3.75048
O          0.73377       -4.98638       -4.41961
C          3.07801       -4.60553       -4.19859
N          3.37503       -3.72368       -5.33421
C          2.67533       -3.66778       -6.46807
N          1.58503       -4.36479       -6.77888
N          3.23737       -2.77572       -7.28448
C          4.40639       -2.29095       -6.72858
C          4.49471       -2.89332       -5.46390
C          5.55621       -2.63077       -4.59913
C          6.52241       -1.72583       -5.06154
C          6.42905       -1.12315       -6.33051
C          5.36369       -1.39626       -7.19836
N          2.72145       -2.37801       -8.58436
H         -0.00819        0.59124        1.51210
H          0.72292        0.58836       -0.09835
H          1.59776       -0.12271        1.31117
H         -1.42483       -2.95034       -0.61359
H         -0.74932       -4.37176       -2.50663
H          3.21084       -2.61200       -2.34108
H          2.52506       -1.25083       -0.46265
H          3.77274       -4.44552       -3.37282
H          3.23006       -5.64007       -4.52944
H          1.21415       -4.32600       -7.71432
H          1.08682       -4.91262       -6.07662
H          5.64101       -3.09735       -3.62646
H          7.37464       -1.48427       -4.42489
H          7.20942       -0.42985       -6.64671
H          5.29241       -0.94344       -8.17841
H          1.70249       -2.33244       -8.60674
H          3.11900       -1.49550       -8.90901
