 xtb: 6.7.1 (edcfbbe)
          12202407113D

 37 39  0     0  0            999 V2000
    0.1360    0.5602   -0.0941 C   0  0  0  0  0  0  0  0  0  0  0  0
   -0.6593    0.2451   -1.3571 C   0  0  0  0  0  0  0  0  0  0  0  0
    0.2169    0.1681   -2.5047 N   0  0  0  0  0  0  0  0  0  0  0  0
    0.7772   -0.9346   -2.9862 C   0  0  0  0  0  0  0  0  0  0  0  0
    1.5838   -0.6607   -4.0113 N   0  0  0  0  0  0  0  0  0  0  0  0
    1.5885    0.7102   -4.1870 C   0  0  0  0  0  0  0  0  0  0  0  0
    0.7053    1.2385   -3.2257 C   0  0  0  0  0  0  0  0  0  0  0  0
    0.4626    2.6043   -3.1427 C   0  0  0  0  0  0  0  0  0  0  0  0
    1.1266    3.4141   -4.0407 C   0  0  0  0  0  0  0  0  0  0  0  0
    2.0052    2.8899   -4.9925 C   0  0  0  0  0  0  0  0  0  0  0  0
    2.2517    1.5354   -5.0861 C   0  0  0  0  0  0  0  0  0  0  0  0
    2.4929   -1.6126   -4.5772 C   0  0  0  0  0  0  0  0  0  0  0  0
    3.3753   -2.1768   -3.4275 C   0  0  0  0  0  0  0  0  0  0  0  0
    3.0557   -1.9233   -2.2880 O   0  0  0  0  0  0  0  0  0  0  0  0
    4.5250   -2.9910   -3.8071 C   0  0  0  0  0  0  0  0  0  0  0  0
    4.7900   -3.3862   -5.1235 C   0  0  0  0  0  0  0  0  0  0  0  0
    5.8939   -4.1687   -5.3983 C   0  0  0  0  0  0  0  0  0  0  0  0
    6.7485   -4.5625   -4.3769 C   0  0  0  0  0  0  0  0  0  0  0  0
    6.4936   -4.1790   -3.0687 C   0  0  0  0  0  0  0  0  0  0  0  0
    5.3897   -3.4019   -2.7835 C   0  0  0  0  0  0  0  0  0  0  0  0
    0.8860   -0.2065    0.0842 H   0  0  0  0  0  0  0  0  0  0  0  0
   -0.5352    0.5942    0.7586 H   0  0  0  0  0  0  0  0  0  0  0  0
    0.6353    1.5218   -0.1805 H   0  0  0  0  0  0  0  0  0  0  0  0
   -1.1709   -0.7136   -1.2520 H   0  0  0  0  0  0  0  0  0  0  0  0
   -1.4035    1.0217   -1.5462 H   0  0  0  0  0  0  0  0  0  0  0  0
    0.5719   -1.9228   -2.6209 H   0  0  0  0  0  0  0  0  0  0  0  0
   -0.2135    3.0160   -2.4118 H   0  0  0  0  0  0  0  0  0  0  0  0
    0.9656    4.4798   -4.0098 H   0  0  0  0  0  0  0  0  0  0  0  0
    2.5019    3.5637   -5.6721 H   0  0  0  0  0  0  0  0  0  0  0  0
    2.9294    1.1452   -5.8278 H   0  0  0  0  0  0  0  0  0  0  0  0
    1.9473   -2.4453   -5.0308 H   0  0  0  0  0  0  0  0  0  0  0  0
    3.1058   -1.1229   -5.3325 H   0  0  0  0  0  0  0  0  0  0  0  0
    4.1358   -3.1016   -5.9328 H   0  0  0  0  0  0  0  0  0  0  0  0
    6.0925   -4.4748   -6.4138 H   0  0  0  0  0  0  0  0  0  0  0  0
    7.6095   -5.1721   -4.6033 H   0  0  0  0  0  0  0  0  0  0  0  0
    7.1537   -4.4892   -2.2745 H   0  0  0  0  0  0  0  0  0  0  0  0
    5.1729   -3.0947   -1.7717 H   0  0  0  0  0  0  0  0  0  0  0  0
  1  2  1  0  0  0  0
  2  3  1  0  0  0  0
  3  4  4  0  0  0  0
  4  5  4  0  0  0  0
  5  6  1  0  0  0  0
  3  7  1  0  0  0  0
  6  7  4  0  0  0  0
  7  8  4  0  0  0  0
  8  9  4  0  0  0  0
  9 10  4  0  0  0  0
  6 11  4  0  0  0  0
 10 11  4  0  0  0  0
  5 12  1  0  0  0  0
 12 13  1  0  0  0  0
 13 14  2  0  0  0  0
 13 15  1  0  0  0  0
 15 16  4  0  0  0  0
 16 17  4  0  0  0  0
 17 18  4  0  0  0  0
 18 19  4  0  0  0  0
 15 20  4  0  0  0  0
 19 20  4  0  0  0  0
  1 21  1  0  0  0  0
  1 22  1  0  0  0  0
  1 23  1  0  0  0  0
  2 24  1  0  0  0  0
  2 25  1  0  0  0  0
  4 26  1  0  0  0  0
  8 27  1  0  0  0  0
  9 28  1  0  0  0  0
 10 29  1  0  0  0  0
 11 30  1  0  0  0  0
 12 31  1  0  0  0  0
 12 32  1  0  0  0  0
 16 33  1  0  0  0  0
 17 34  1  0  0  0  0
 18 35  1  0  0  0  0
 19 36  1  0  0  0  0
 20 37  1  0  0  0  0
M  CHG  1   1   1
M  END
