 xtb: 6.7.1 (edcfbbe)
          12202407103D

 75 75  0     0  0            999 V2000
    2.1863    0.2262    0.8386 C   0  0  0  0  0  0  0  0  0  0  0  0
    1.2005    0.3366    1.9294 N   0  0  0  0  0  0  0  0  0  0  0  0
    1.4910   -0.7452    2.9179 C   0  0  0  0  0  0  0  0  0  0  0  0
    0.6585   -0.6578    4.1917 C   0  0  0  0  0  0  0  0  0  0  0  0
    0.8599    0.6962    4.8637 C   0  0  0  0  0  0  0  0  0  0  0  0
    0.5445    1.8107    3.8718 C   0  0  0  0  0  0  0  0  0  0  0  0
    1.3772    1.6542    2.6043 C   0  0  0  0  0  0  0  0  0  0  0  0
   -0.1810    0.1574    1.3837 C   0  0  0  0  0  0  0  0  0  0  0  0
   -0.5900    1.0847    0.2317 C   0  0  0  0  0  0  0  0  0  0  0  0
   -0.5148    0.4385   -1.1570 C   0  0  0  0  0  0  0  0  0  0  0  0
   -1.5504   -0.6631   -1.3961 C   0  0  0  0  0  0  0  0  0  0  0  0
   -3.0062   -0.1920   -1.4272 C   0  0  0  0  0  0  0  0  0  0  0  0
   -3.3272    0.8567   -2.4951 C   0  0  0  0  0  0  0  0  0  0  0  0
   -2.9368    0.4684   -3.9229 C   0  0  0  0  0  0  0  0  0  0  0  0
   -3.5508   -0.8373   -4.4308 C   0  0  0  0  0  0  0  0  0  0  0  0
   -5.0779   -0.8434   -4.5197 C   0  0  0  0  0  0  0  0  0  0  0  0
   -5.6762    0.2054   -5.4599 C   0  0  0  0  0  0  0  0  0  0  0  0
   -5.1534    0.1612   -6.8975 C   0  0  0  0  0  0  0  0  0  0  0  0
   -5.3183   -1.1837   -7.6075 C   0  0  0  0  0  0  0  0  0  0  0  0
   -6.7622   -1.6655   -7.7567 C   0  0  0  0  0  0  0  0  0  0  0  0
   -7.6711   -0.7445   -8.5731 C   0  0  0  0  0  0  0  0  0  0  0  0
   -7.1939   -0.4590   -9.9987 C   0  0  0  0  0  0  0  0  0  0  0  0
   -6.9616   -1.6972  -10.8674 C   0  0  0  0  0  0  0  0  0  0  0  0
   -8.1848   -2.5958  -11.0551 C   0  0  0  0  0  0  0  0  0  0  0  0
   -9.3362   -1.9032  -11.7741 C   0  0  0  0  0  0  0  0  0  0  0  0
    2.0490    1.0291    0.1188 H   0  0  0  0  0  0  0  0  0  0  0  0
    2.0711   -0.7304    0.3321 H   0  0  0  0  0  0  0  0  0  0  0  0
    3.1981    0.2888    1.2361 H   0  0  0  0  0  0  0  0  0  0  0  0
    2.5466   -0.6635    3.1876 H   0  0  0  0  0  0  0  0  0  0  0  0
    1.3376   -1.7084    2.4274 H   0  0  0  0  0  0  0  0  0  0  0  0
    0.9864   -1.4575    4.8563 H   0  0  0  0  0  0  0  0  0  0  0  0
   -0.3986   -0.8265    3.9861 H   0  0  0  0  0  0  0  0  0  0  0  0
    0.2158    0.7799    5.7372 H   0  0  0  0  0  0  0  0  0  0  0  0
    1.8930    0.7878    5.2037 H   0  0  0  0  0  0  0  0  0  0  0  0
   -0.5211    1.8230    3.6416 H   0  0  0  0  0  0  0  0  0  0  0  0
    0.7878    2.7794    4.3089 H   0  0  0  0  0  0  0  0  0  0  0  0
    1.1329    2.4460    1.8955 H   0  0  0  0  0  0  0  0  0  0  0  0
    2.4345    1.7449    2.8638 H   0  0  0  0  0  0  0  0  0  0  0  0
   -0.2574   -0.8776    1.0448 H   0  0  0  0  0  0  0  0  0  0  0  0
   -0.8724    0.2859    2.2139 H   0  0  0  0  0  0  0  0  0  0  0  0
   -1.6219    1.3937    0.3991 H   0  0  0  0  0  0  0  0  0  0  0  0
    0.0047    1.9985    0.2325 H   0  0  0  0  0  0  0  0  0  0  0  0
   -0.6658    1.2219   -1.8990 H   0  0  0  0  0  0  0  0  0  0  0  0
    0.4786    0.0211   -1.3306 H   0  0  0  0  0  0  0  0  0  0  0  0
   -1.3165   -1.1356   -2.3500 H   0  0  0  0  0  0  0  0  0  0  0  0
   -1.4593   -1.4380   -0.6296 H   0  0  0  0  0  0  0  0  0  0  0  0
   -3.6323   -1.0691   -1.5952 H   0  0  0  0  0  0  0  0  0  0  0  0
   -3.2877    0.2118   -0.4510 H   0  0  0  0  0  0  0  0  0  0  0  0
   -4.4003    1.0497   -2.4596 H   0  0  0  0  0  0  0  0  0  0  0  0
   -2.8298    1.7979   -2.2468 H   0  0  0  0  0  0  0  0  0  0  0  0
   -3.2348    1.2823   -4.5853 H   0  0  0  0  0  0  0  0  0  0  0  0
   -1.8491    0.3861   -3.9930 H   0  0  0  0  0  0  0  0  0  0  0  0
   -3.1374   -1.0403   -5.4199 H   0  0  0  0  0  0  0  0  0  0  0  0
   -3.2426   -1.6618   -3.7835 H   0  0  0  0  0  0  0  0  0  0  0  0
   -5.3908   -1.8357   -4.8498 H   0  0  0  0  0  0  0  0  0  0  0  0
   -5.5013   -0.6923   -3.5238 H   0  0  0  0  0  0  0  0  0  0  0  0
   -6.7594    0.0701   -5.4687 H   0  0  0  0  0  0  0  0  0  0  0  0
   -5.4854    1.2036   -5.0583 H   0  0  0  0  0  0  0  0  0  0  0  0
   -5.6712    0.9334   -7.4693 H   0  0  0  0  0  0  0  0  0  0  0  0
   -4.0922    0.4218   -6.9030 H   0  0  0  0  0  0  0  0  0  0  0  0
   -4.8659   -1.1009   -8.5976 H   0  0  0  0  0  0  0  0  0  0  0  0
   -4.7578   -1.9492   -7.0660 H   0  0  0  0  0  0  0  0  0  0  0  0
   -6.7427   -2.6520   -8.2242 H   0  0  0  0  0  0  0  0  0  0  0  0
   -7.2051   -1.7919   -6.7661 H   0  0  0  0  0  0  0  0  0  0  0  0
   -8.6638   -1.1978   -8.6120 H   0  0  0  0  0  0  0  0  0  0  0  0
   -7.7791    0.2101   -8.0530 H   0  0  0  0  0  0  0  0  0  0  0  0
   -7.9337    0.1824  -10.4818 H   0  0  0  0  0  0  0  0  0  0  0  0
   -6.2610    0.1082   -9.9595 H   0  0  0  0  0  0  0  0  0  0  0  0
   -6.6247   -1.3599  -11.8513 H   0  0  0  0  0  0  0  0  0  0  0  0
   -6.1542   -2.2936  -10.4374 H   0  0  0  0  0  0  0  0  0  0  0  0
   -7.8776   -3.4663  -11.6406 H   0  0  0  0  0  0  0  0  0  0  0  0
   -8.5289   -2.9622  -10.0863 H   0  0  0  0  0  0  0  0  0  0  0  0
   -9.0011   -1.4977  -12.7265 H   0  0  0  0  0  0  0  0  0  0  0  0
  -10.1393   -2.6108  -11.9675 H   0  0  0  0  0  0  0  0  0  0  0  0
   -9.7399   -1.0901  -11.1764 H   0  0  0  0  0  0  0  0  0  0  0  0
  1  2  1  0  0  0  0
  2  3  1  0  0  0  0
  3  4  1  0  0  0  0
  4  5  1  0  0  0  0
  5  6  1  0  0  0  0
  2  7  1  0  0  0  0
  6  7  1  0  0  0  0
  2  8  1  0  0  0  0
  8  9  1  0  0  0  0
  9 10  1  0  0  0  0
 10 11  1  0  0  0  0
 11 12  1  0  0  0  0
 12 13  1  0  0  0  0
 13 14  1  0  0  0  0
 14 15  1  0  0  0  0
 15 16  1  0  0  0  0
 16 17  1  0  0  0  0
 17 18  1  0  0  0  0
 18 19  1  0  0  0  0
 19 20  1  0  0  0  0
 20 21  1  0  0  0  0
 21 22  1  0  0  0  0
 22 23  1  0  0  0  0
 23 24  1  0  0  0  0
 24 25  1  0  0  0  0
  1 26  1  0  0  0  0
  1 27  1  0  0  0  0
  1 28  1  0  0  0  0
  3 29  1  0  0  0  0
  3 30  1  0  0  0  0
  4 31  1  0  0  0  0
  4 32  1  0  0  0  0
  5 33  1  0  0  0  0
  5 34  1  0  0  0  0
  6 35  1  0  0  0  0
  6 36  1  0  0  0  0
  7 37  1  0  0  0  0
  7 38  1  0  0  0  0
  8 39  1  0  0  0  0
  8 40  1  0  0  0  0
  9 41  1  0  0  0  0
  9 42  1  0  0  0  0
 10 43  1  0  0  0  0
 10 44  1  0  0  0  0
 11 45  1  0  0  0  0
 11 46  1  0  0  0  0
 12 47  1  0  0  0  0
 12 48  1  0  0  0  0
 13 49  1  0  0  0  0
 13 50  1  0  0  0  0
 14 51  1  0  0  0  0
 14 52  1  0  0  0  0
 15 53  1  0  0  0  0
 15 54  1  0  0  0  0
 16 55  1  0  0  0  0
 16 56  1  0  0  0  0
 17 57  1  0  0  0  0
 17 58  1  0  0  0  0
 18 59  1  0  0  0  0
 18 60  1  0  0  0  0
 19 61  1  0  0  0  0
 19 62  1  0  0  0  0
 20 63  1  0  0  0  0
 20 64  1  0  0  0  0
 21 65  1  0  0  0  0
 21 66  1  0  0  0  0
 22 67  1  0  0  0  0
 22 68  1  0  0  0  0
 23 69  1  0  0  0  0
 23 70  1  0  0  0  0
 24 71  1  0  0  0  0
 24 72  1  0  0  0  0
 25 73  1  0  0  0  0
 25 74  1  0  0  0  0
 25 75  1  0  0  0  0
M  CHG  1   1   1
M  END
