 xtb: 6.7.1 (edcfbbe)
          12202407113D

 18 17  0     0  0            999 V2000
    0.9709    0.0746   -0.1885 C   0  0  0  0  0  0  0  0  0  0  0  0
    0.3635   -0.9978    0.2869 C   0  0  0  0  0  0  0  0  0  0  0  0
   -1.1324   -1.1383    0.3139 C   0  0  0  0  0  0  0  0  0  0  0  0
   -1.6343   -1.9462   -0.8426 N   0  0  0  0  0  0  0  0  0  0  0  0
   -1.1908   -3.3493   -0.7630 C   0  0  0  0  0  0  0  0  0  0  0  0
   -3.1010   -1.8656   -0.9550 C   0  0  0  0  0  0  0  0  0  0  0  0
    0.4282    0.9193   -0.5816 H   0  0  0  0  0  0  0  0  0  0  0  0
    2.0428    0.1613   -0.1875 H   0  0  0  0  0  0  0  0  0  0  0  0
    0.9356   -1.8148    0.7009 H   0  0  0  0  0  0  0  0  0  0  0  0
   -1.4596   -1.6291    1.2327 H   0  0  0  0  0  0  0  0  0  0  0  0
   -1.5933   -0.1500    0.2568 H   0  0  0  0  0  0  0  0  0  0  0  0
   -1.2223   -1.5356   -1.6892 H   0  0  0  0  0  0  0  0  0  0  0  0
   -1.6057   -3.8140    0.1300 H   0  0  0  0  0  0  0  0  0  0  0  0
   -1.5313   -3.9026   -1.6363 H   0  0  0  0  0  0  0  0  0  0  0  0
   -0.1054   -3.4011   -0.7190 H   0  0  0  0  0  0  0  0  0  0  0  0
   -3.4186   -0.8319   -1.0783 H   0  0  0  0  0  0  0  0  0  0  0  0
   -3.4472   -2.4412   -1.8116 H   0  0  0  0  0  0  0  0  0  0  0  0
   -3.5600   -2.2686   -0.0536 H   0  0  0  0  0  0  0  0  0  0  0  0
  1  2  2  0  0  0  0
  2  3  1  0  0  0  0
  3  4  1  0  0  0  0
  4  5  1  0  0  0  0
  4  6  1  0  0  0  0
  1  7  1  0  0  0  0
  1  8  1  0  0  0  0
  2  9  1  0  0  0  0
  3 10  1  0  0  0  0
  3 11  1  0  0  0  0
  4 12  1  0  0  0  0
  5 13  1  0  0  0  0
  5 14  1  0  0  0  0
  5 15  1  0  0  0  0
  6 16  1  0  0  0  0
  6 17  1  0  0  0  0
  6 18  1  0  0  0  0
M  CHG  1   1   1
M  END
