30

C          0.87768        0.07231       -0.64715
C          0.78121       -1.35090       -0.13286
O          1.28285       -1.38510        1.20801
N          2.58759       -1.88037        1.24205
C          3.61313       -1.19596        1.83908
C          4.67867       -2.05123        1.83897
N          4.23255       -3.26553        1.31760
C          2.93602       -3.14419        0.97521
C          5.01555       -4.49753        1.19256
C          4.92863       -5.26475        2.48808
C          5.84224       -4.97323        3.51949
C          5.77467       -5.63878        4.74605
C          4.79567       -6.60483        4.95712
C          3.88353       -6.91292        3.95286
C          3.94864       -6.24427        2.72695
Cl         2.77548       -6.66399        1.53056
Cl         4.70995       -7.41663        6.46924
H          0.32895        0.75621        0.00921
H          0.47106        0.15198       -1.65891
H          1.91927        0.40994       -0.65710
H         -0.26573       -1.66773       -0.10228
H          1.32243       -2.03792       -0.79203
H          3.44851       -0.18557        2.16608
H          5.69784       -1.96561        2.17491
H          2.29154       -3.91736        0.57596
H          4.65797       -5.07171        0.33248
H          6.05646       -4.23163        0.97165
H          6.62268       -4.22657        3.38054
H          6.48855       -5.40233        5.53316
H          3.12414       -7.67216        4.12813
