 xtb: 6.7.1 (edcfbbe)
          12202407113D

102105  0     0  0            999 V2000
    2.5637    0.8028    2.0714 C   0  0  0  0  0  0  0  0  0  0  0  0
    1.7472    1.6540    3.0366 C   0  0  0  0  0  0  0  0  0  0  0  0
    1.6262    3.1166    2.6042 C   0  0  0  0  0  0  0  0  0  0  0  0
    0.8811    3.3397    1.2862 C   0  0  0  0  0  0  0  0  0  0  0  0
   -0.6120    3.0070    1.3425 C   0  0  0  0  0  0  0  0  0  0  0  0
   -1.4459    4.0585    2.0808 C   0  0  0  0  0  0  0  0  0  0  0  0
   -1.7792    5.2830    1.2257 C   0  0  0  0  0  0  0  0  0  0  0  0
   -2.8656    5.0092    0.1783 C   0  0  0  0  0  0  0  0  0  0  0  0
   -4.1605    4.7795    0.7753 N   0  0  0  0  0  0  0  0  0  0  0  0
   -4.6919    3.5325    1.0062 C   0  0  0  0  0  0  0  0  0  0  0  0
   -4.2135    2.2604    0.7340 C   0  0  0  0  0  0  0  0  0  0  0  0
   -5.0094    1.1850    1.0935 C   0  0  0  0  0  0  0  0  0  0  0  0
   -4.4477   -0.4080    0.7828 Cl  0  0  0  0  0  0  0  0  0  0  0  0
   -6.2610    1.3777    1.7013 C   0  0  0  0  0  0  0  0  0  0  0  0
   -6.7400    2.6493    1.9747 C   0  0  0  0  0  0  0  0  0  0  0  0
   -5.9392    3.7241    1.6238 C   0  0  0  0  0  0  0  0  0  0  0  0
   -6.1147    5.0846    1.7696 N   0  0  0  0  0  0  0  0  0  0  0  0
   -5.0308    5.7272    1.2439 C   0  0  0  0  0  0  0  0  0  0  0  0
   -4.7520    7.0925    1.1268 C   0  0  0  0  0  0  0  0  0  0  0  0
   -5.4461    8.2206    1.5294 C   0  0  0  0  0  0  0  0  0  0  0  0
   -4.9190    9.4767    1.2491 C   0  0  0  0  0  0  0  0  0  0  0  0
   -5.3609   10.7672    1.5196 C   0  0  0  0  0  0  0  0  0  0  0  0
   -6.5428   11.2052    2.0594 N   0  0  0  0  0  0  0  0  0  0  0  0
   -7.6527   10.4281    2.5364 C   0  0  0  0  0  0  0  0  0  0  0  0
   -7.4951   10.0852    4.0248 C   0  0  0  0  0  0  0  0  0  0  0  0
   -8.4901    9.0212    4.4345 C   0  0  0  0  0  0  0  0  0  0  0  0
   -8.7339    8.0467    3.7695 O   0  0  0  0  0  0  0  0  0  0  0  0
   -9.0465    9.2776    5.6040 O   0  0  0  0  0  0  0  0  0  0  0  0
   -6.5128   12.5810    2.1504 C   0  0  0  0  0  0  0  0  0  0  0  0
   -5.2832   13.0027    1.6214 C   0  0  0  0  0  0  0  0  0  0  0  0
   -4.6015   11.8744    1.2305 N   0  0  0  0  0  0  0  0  0  0  0  0
   -3.2709   11.9358    0.6718 C   0  0  0  0  0  0  0  0  0  0  0  0
   -2.1922   12.0449    1.7566 C   0  0  0  0  0  0  0  0  0  0  0  0
   -2.0287   10.7759    2.5953 C   0  0  0  0  0  0  0  0  0  0  0  0
   -1.2942    9.6490    1.8623 C   0  0  0  0  0  0  0  0  0  0  0  0
    0.2277    9.8145    1.8733 C   0  0  0  0  0  0  0  0  0  0  0  0
    0.8827    9.4302    3.2018 C   0  0  0  0  0  0  0  0  0  0  0  0
    0.8966    7.9284    3.4938 C   0  0  0  0  0  0  0  0  0  0  0  0
    1.7879    7.1394    2.5422 C   0  0  0  0  0  0  0  0  0  0  0  0
   -4.9502   14.3456    1.5638 C   0  0  0  0  0  0  0  0  0  0  0  0
   -5.8774   15.2582    2.0468 C   0  0  0  0  0  0  0  0  0  0  0  0
   -7.1051   14.8353    2.5778 C   0  0  0  0  0  0  0  0  0  0  0  0
   -7.4363   13.4885    2.6376 C   0  0  0  0  0  0  0  0  0  0  0  0
   -8.2238   15.9965    3.1712 Cl  0  0  0  0  0  0  0  0  0  0  0  0
   -5.5048   16.9347    1.9942 Cl  0  0  0  0  0  0  0  0  0  0  0  0
   -7.2977    5.6760    2.3418 C   0  0  0  0  0  0  0  0  0  0  0  0
   -8.2518    6.2208    1.2778 C   0  0  0  0  0  0  0  0  0  0  0  0
   -9.0798    5.1211    0.6491 C   0  0  0  0  0  0  0  0  0  0  0  0
   -9.3162    4.0614    1.1597 O   0  0  0  0  0  0  0  0  0  0  0  0
   -9.5374    5.4816   -0.5480 O   0  0  0  0  0  0  0  0  0  0  0  0
   -7.2220    0.0163    2.1142 Cl  0  0  0  0  0  0  0  0  0  0  0  0
    2.0573    0.6913    1.1160 H   0  0  0  0  0  0  0  0  0  0  0  0
    2.7170   -0.1903    2.4865 H   0  0  0  0  0  0  0  0  0  0  0  0
    3.5379    1.2537    1.8961 H   0  0  0  0  0  0  0  0  0  0  0  0
    0.7553    1.2149    3.1590 H   0  0  0  0  0  0  0  0  0  0  0  0
    2.2305    1.6340    4.0161 H   0  0  0  0  0  0  0  0  0  0  0  0
    1.1294    3.6730    3.4030 H   0  0  0  0  0  0  0  0  0  0  0  0
    2.6334    3.5266    2.4981 H   0  0  0  0  0  0  0  0  0  0  0  0
    1.0055    4.3837    0.9900 H   0  0  0  0  0  0  0  0  0  0  0  0
    1.3483    2.7302    0.5125 H   0  0  0  0  0  0  0  0  0  0  0  0
   -0.9776    2.8999    0.3190 H   0  0  0  0  0  0  0  0  0  0  0  0
   -0.7435    2.0427    1.8331 H   0  0  0  0  0  0  0  0  0  0  0  0
   -2.3746    3.6079    2.4375 H   0  0  0  0  0  0  0  0  0  0  0  0
   -0.8927    4.3913    2.9594 H   0  0  0  0  0  0  0  0  0  0  0  0
   -2.1151    6.0952    1.8738 H   0  0  0  0  0  0  0  0  0  0  0  0
   -0.8819    5.6196    0.7061 H   0  0  0  0  0  0  0  0  0  0  0  0
   -2.9370    5.8457   -0.5216 H   0  0  0  0  0  0  0  0  0  0  0  0
   -2.6136    4.1198   -0.3989 H   0  0  0  0  0  0  0  0  0  0  0  0
   -3.2586    2.0835    0.2708 H   0  0  0  0  0  0  0  0  0  0  0  0
   -7.7178    2.7699    2.4087 H   0  0  0  0  0  0  0  0  0  0  0  0
   -3.8219    7.2976    0.6171 H   0  0  0  0  0  0  0  0  0  0  0  0
   -6.3666    8.1217    2.0746 H   0  0  0  0  0  0  0  0  0  0  0  0
   -3.9670    9.4473    0.7418 H   0  0  0  0  0  0  0  0  0  0  0  0
   -8.5607   11.0172    2.3882 H   0  0  0  0  0  0  0  0  0  0  0  0
   -7.7483    9.5168    1.9450 H   0  0  0  0  0  0  0  0  0  0  0  0
   -6.4940    9.6808    4.1991 H   0  0  0  0  0  0  0  0  0  0  0  0
   -7.6249   10.9649    4.6534 H   0  0  0  0  0  0  0  0  0  0  0  0
   -9.6746    8.5865    5.8732 H   0  0  0  0  0  0  0  0  0  0  0  0
   -3.0986   11.0657    0.0391 H   0  0  0  0  0  0  0  0  0  0  0  0
   -3.2326   12.8204    0.0316 H   0  0  0  0  0  0  0  0  0  0  0  0
   -1.2467   12.2843    1.2695 H   0  0  0  0  0  0  0  0  0  0  0  0
   -2.4493   12.8785    2.4126 H   0  0  0  0  0  0  0  0  0  0  0  0
   -1.4699   11.0285    3.4967 H   0  0  0  0  0  0  0  0  0  0  0  0
   -3.0134   10.4288    2.9155 H   0  0  0  0  0  0  0  0  0  0  0  0
   -1.5536    8.6968    2.3270 H   0  0  0  0  0  0  0  0  0  0  0  0
   -1.6300    9.6050    0.8239 H   0  0  0  0  0  0  0  0  0  0  0  0
    0.6583    9.2063    1.0774 H   0  0  0  0  0  0  0  0  0  0  0  0
    0.4747   10.8542    1.6508 H   0  0  0  0  0  0  0  0  0  0  0  0
    1.9145    9.7865    3.1931 H   0  0  0  0  0  0  0  0  0  0  0  0
    0.3702    9.9417    4.0193 H   0  0  0  0  0  0  0  0  0  0  0  0
    1.2630    7.7858    4.5125 H   0  0  0  0  0  0  0  0  0  0  0  0
   -0.1193    7.5279    3.4572 H   0  0  0  0  0  0  0  0  0  0  0  0
    2.7946    7.5500    2.5385 H   0  0  0  0  0  0  0  0  0  0  0  0
    1.8450    6.1002    2.8550 H   0  0  0  0  0  0  0  0  0  0  0  0
    1.4039    7.1666    1.5251 H   0  0  0  0  0  0  0  0  0  0  0  0
   -4.0131   14.6952    1.1657 H   0  0  0  0  0  0  0  0  0  0  0  0
   -8.3841   13.1922    3.0535 H   0  0  0  0  0  0  0  0  0  0  0  0
   -7.8197    4.8982    2.9013 H   0  0  0  0  0  0  0  0  0  0  0  0
   -7.0160    6.4613    3.0430 H   0  0  0  0  0  0  0  0  0  0  0  0
   -8.9495    6.9047    1.7659 H   0  0  0  0  0  0  0  0  0  0  0  0
   -7.7266    6.7618    0.4910 H   0  0  0  0  0  0  0  0  0  0  0  0
  -10.1064    4.7928   -0.9285 H   0  0  0  0  0  0  0  0  0  0  0  0
  1  2  1  0  0  0  0
  2  3  1  0  0  0  0
  3  4  1  0  0  0  0
  4  5  1  0  0  0  0
  5  6  1  0  0  0  0
  6  7  1  0  0  0  0
  7  8  1  0  0  0  0
  8  9  1  0  0  0  0
  9 10  1  0  0  0  0
 10 11  4  0  0  0  0
 11 12  4  0  0  0  0
 12 13  1  0  0  0  0
 12 14  4  0  0  0  0
 14 15  4  0  0  0  0
 10 16  4  0  0  0  0
 15 16  4  0  0  0  0
 16 17  1  0  0  0  0
  9 18  4  0  0  0  0
 17 18  4  0  0  0  0
 18 19  4  0  0  0  0
 19 20  4  0  0  0  0
 20 21  4  0  0  0  0
 21 22  4  0  0  0  0
 22 23  1  0  0  0  0
 23 24  1  0  0  0  0
 24 25  1  0  0  0  0
 25 26  1  0  0  0  0
 26 27  2  0  0  0  0
 26 28  1  0  0  0  0
 23 29  1  0  0  0  0
 29 30  4  0  0  0  0
 22 31  1  0  0  0  0
 30 31  1  0  0  0  0
 31 32  1  0  0  0  0
 32 33  1  0  0  0  0
 33 34  1  0  0  0  0
 34 35  1  0  0  0  0
 35 36  1  0  0  0  0
 36 37  1  0  0  0  0
 37 38  1  0  0  0  0
 38 39  1  0  0  0  0
 30 40  4  0  0  0  0
 40 41  4  0  0  0  0
 41 42  4  0  0  0  0
 29 43  4  0  0  0  0
 42 43  4  0  0  0  0
 42 44  1  0  0  0  0
 41 45  1  0  0  0  0
 17 46  1  0  0  0  0
 46 47  1  0  0  0  0
 47 48  1  0  0  0  0
 48 49  2  0  0  0  0
 48 50  1  0  0  0  0
 14 51  1  0  0  0  0
  1 52  1  0  0  0  0
  1 53  1  0  0  0  0
  1 54  1  0  0  0  0
  2 55  1  0  0  0  0
  2 56  1  0  0  0  0
  3 57  1  0  0  0  0
  3 58  1  0  0  0  0
  4 59  1  0  0  0  0
  4 60  1  0  0  0  0
  5 61  1  0  0  0  0
  5 62  1  0  0  0  0
  6 63  1  0  0  0  0
  6 64  1  0  0  0  0
  7 65  1  0  0  0  0
  7 66  1  0  0  0  0
  8 67  1  0  0  0  0
  8 68  1  0  0  0  0
 11 69  1  0  0  0  0
 15 70  1  0  0  0  0
 19 71  1  0  0  0  0
 20 72  1  0  0  0  0
 21 73  1  0  0  0  0
 24 74  1  0  0  0  0
 24 75  1  0  0  0  0
 25 76  1  0  0  0  0
 25 77  1  0  0  0  0
 28 78  1  0  0  0  0
 32 79  1  0  0  0  0
 32 80  1  0  0  0  0
 33 81  1  0  0  0  0
 33 82  1  0  0  0  0
 34 83  1  0  0  0  0
 34 84  1  0  0  0  0
 35 85  1  0  0  0  0
 35 86  1  0  0  0  0
 36 87  1  0  0  0  0
 36 88  1  0  0  0  0
 37 89  1  0  0  0  0
 37 90  1  0  0  0  0
 38 91  1  0  0  0  0
 38 92  1  0  0  0  0
 39 93  1  0  0  0  0
 39 94  1  0  0  0  0
 39 95  1  0  0  0  0
 40 96  1  0  0  0  0
 43 97  1  0  0  0  0
 46 98  1  0  0  0  0
 46 99  1  0  0  0  0
 47100  1  0  0  0  0
 47101  1  0  0  0  0
 50102  1  0  0  0  0
M  CHG  1   1   1
M  END
