55

C          1.04167       -0.06056        0.58118
C          0.95641        1.44029        0.34889
C          1.30921        1.85784       -1.08136
C          0.41473        1.27194       -2.17949
C         -1.07789        1.59557       -2.05325
C         -1.43120        3.08666       -2.09715
C         -1.03717        3.81731       -3.38615
C         -1.64264        3.24811       -4.67414
C         -3.17465        3.24497       -4.73156
C         -3.83738        4.62653       -4.66835
C         -3.42268        5.60905       -5.77034
C         -3.62064        5.10834       -7.20474
C         -5.07159        4.80963       -7.59692
C         -5.96608        6.04551       -7.68531
N         -5.47478        7.02958       -8.65845
C         -5.22966        8.37122       -8.40609
C         -4.76077        8.91376       -9.56877
N         -4.74170        7.89504      -10.50590
C         -5.20570        6.76699       -9.94778
C         -4.27188        7.99936      -11.88104
H          0.28749       -0.60047        0.00121
H          0.87079       -0.28778        1.63839
H          2.02961       -0.44471        0.30808
H         -0.04439        1.79614        0.61623
H          1.65331        1.93738        1.03459
H          1.29296        2.95233       -1.14128
H          2.34540        1.56141       -1.28840
H          0.78403        1.62053       -3.15117
H          0.53288        0.18189       -2.19741
H         -1.61561        1.06980       -2.85090
H         -1.46380        1.17409       -1.11774
H         -2.51074        3.19194       -1.93735
H         -0.95981        3.59796       -1.24961
H         -1.31815        4.87249       -3.28764
H          0.05484        3.81326       -3.48499
H         -1.24529        3.81444       -5.52448
H         -1.28761        2.22113       -4.81959
H         -3.48601        2.73667       -5.65181
H         -3.57116        2.63069       -3.91482
H         -4.92501        4.49032       -4.69760
H         -3.62618        5.08664       -3.69570
H         -3.97449        6.54577       -5.62920
H         -2.36537        5.86855       -5.63879
H         -3.20188        5.85274       -7.89240
H         -3.02499        4.20172       -7.36062
H         -5.06153        4.31005       -8.57316
H         -5.51585        4.09356       -6.89726
H         -6.97306        5.75316       -8.00491
H         -6.06260        6.52688       -6.70630
H         -5.41372        8.76639       -7.42134
H         -4.43199        9.89902       -9.85325
H         -5.32014        5.81122      -10.44535
H         -3.22361        7.69066      -11.91641
H         -4.87050        7.34502      -12.52031
H         -4.36614        9.03047      -12.23151
