27

C          0.63125       -0.23065        1.15330
O          0.08679        1.09416        1.07372
C          1.01832        2.08757        1.18059
O          2.21040        1.92372        1.38118
C          0.35641        3.45676        0.99476
C          0.94637        4.19782       -0.21693
C          0.49975        3.62634       -1.54358
C         -0.54712        4.22552       -2.26051
C         -1.00570        3.65442       -3.44810
C         -0.41915        2.48867       -3.93490
C          0.63801        1.90079       -3.24497
C          1.10081        2.46840       -2.05788
N         -1.15149        3.36313        0.86430
H         -0.14454       -0.93170        0.83351
H          0.90632       -0.45556        2.18752
H          1.49214       -0.34430        0.48653
H          0.52689        4.02562        1.91515
H          0.65692        5.25569       -0.16663
H          2.04319        4.18892       -0.17699
H         -1.00500        5.15353       -1.92332
H         -1.80823        4.12734       -4.01138
H         -0.76742        2.05210       -4.86916
H          1.11443        1.00774       -3.64576
H          1.94930        2.00069       -1.55896
H         -1.55449        2.87104        1.67227
H         -1.60320        4.27834        0.76473
H         -1.38791        2.79105        0.03777
