 xtb: 6.7.1 (edcfbbe)
          12202407113D

 55 55  0     0  0            999 V2000
    1.1037    0.0563    0.6032 C   0  0  0  0  0  0  0  0  0  0  0  0
    0.9210    1.5437    0.3255 C   0  0  0  0  0  0  0  0  0  0  0  0
    1.2205    1.9292   -1.1239 C   0  0  0  0  0  0  0  0  0  0  0  0
    0.3232    1.2625   -2.1687 C   0  0  0  0  0  0  0  0  0  0  0  0
   -1.1719    1.5512   -2.0196 C   0  0  0  0  0  0  0  0  0  0  0  0
   -1.5558    3.0315   -2.0710 C   0  0  0  0  0  0  0  0  0  0  0  0
   -1.1206    3.7693   -3.3386 C   0  0  0  0  0  0  0  0  0  0  0  0
   -1.6599    3.1839   -4.6451 C   0  0  0  0  0  0  0  0  0  0  0  0
   -3.1852    3.1591   -4.7631 C   0  0  0  0  0  0  0  0  0  0  0  0
   -3.8639    4.5277   -4.6723 C   0  0  0  0  0  0  0  0  0  0  0  0
   -3.3761    5.5616   -5.6907 C   0  0  0  0  0  0  0  0  0  0  0  0
   -3.4718    5.1204   -7.1533 C   0  0  0  0  0  0  0  0  0  0  0  0
   -4.8882    4.8121   -7.6397 C   0  0  0  0  0  0  0  0  0  0  0  0
   -5.8042    6.0410   -7.6994 C   0  0  0  0  0  0  0  0  0  0  0  0
   -5.3204    7.0013   -8.6649 N   0  0  0  0  0  0  0  0  0  0  0  0
   -4.5217    8.0703   -8.4003 C   0  0  0  0  0  0  0  0  0  0  0  0
   -4.2275    8.6637   -9.5909 C   0  0  0  0  0  0  0  0  0  0  0  0
   -4.8475    7.9422  -10.5657 N   0  0  0  0  0  0  0  0  0  0  0  0
   -5.5001    6.9409   -9.9819 C   0  0  0  0  0  0  0  0  0  0  0  0
   -4.8015    8.2336  -11.9732 C   0  0  0  0  0  0  0  0  0  0  0  0
    0.3673   -0.5374    0.0674 H   0  0  0  0  0  0  0  0  0  0  0  0
    0.9895   -0.1447    1.6658 H   0  0  0  0  0  0  0  0  0  0  0  0
    2.0964   -0.2684    0.2987 H   0  0  0  0  0  0  0  0  0  0  0  0
   -0.0962    1.8407    0.5875 H   0  0  0  0  0  0  0  0  0  0  0  0
    1.5993    2.1076    0.9708 H   0  0  0  0  0  0  0  0  0  0  0  0
    1.1439    3.0146   -1.2192 H   0  0  0  0  0  0  0  0  0  0  0  0
    2.2556    1.6579   -1.3477 H   0  0  0  0  0  0  0  0  0  0  0  0
    0.6566    1.5831   -3.1584 H   0  0  0  0  0  0  0  0  0  0  0  0
    0.4658    0.1813   -2.1221 H   0  0  0  0  0  0  0  0  0  0  0  0
   -1.7037    1.0115   -2.8069 H   0  0  0  0  0  0  0  0  0  0  0  0
   -1.5207    1.1458   -1.0681 H   0  0  0  0  0  0  0  0  0  0  0  0
   -2.6402    3.1077   -1.9603 H   0  0  0  0  0  0  0  0  0  0  0  0
   -1.1133    3.5444   -1.2152 H   0  0  0  0  0  0  0  0  0  0  0  0
   -1.4311    4.8133   -3.2509 H   0  0  0  0  0  0  0  0  0  0  0  0
   -0.0307    3.7668   -3.3945 H   0  0  0  0  0  0  0  0  0  0  0  0
   -1.2381    3.7551   -5.4759 H   0  0  0  0  0  0  0  0  0  0  0  0
   -1.2987    2.1599   -4.7507 H   0  0  0  0  0  0  0  0  0  0  0  0
   -3.4498    2.6812   -5.7097 H   0  0  0  0  0  0  0  0  0  0  0  0
   -3.5923    2.5314   -3.9695 H   0  0  0  0  0  0  0  0  0  0  0  0
   -4.9426    4.3856   -4.7777 H   0  0  0  0  0  0  0  0  0  0  0  0
   -3.6977    4.9400   -3.6762 H   0  0  0  0  0  0  0  0  0  0  0  0
   -3.9411    6.4851   -5.5363 H   0  0  0  0  0  0  0  0  0  0  0  0
   -2.3311    5.7939   -5.4830 H   0  0  0  0  0  0  0  0  0  0  0  0
   -3.0242    5.8931   -7.7859 H   0  0  0  0  0  0  0  0  0  0  0  0
   -2.8725    4.2201   -7.2841 H   0  0  0  0  0  0  0  0  0  0  0  0
   -4.8367    4.3616   -8.6334 H   0  0  0  0  0  0  0  0  0  0  0  0
   -5.3512    4.0866   -6.9728 H   0  0  0  0  0  0  0  0  0  0  0  0
   -6.8129    5.7367   -7.9860 H   0  0  0  0  0  0  0  0  0  0  0  0
   -5.8461    6.5269   -6.7243 H   0  0  0  0  0  0  0  0  0  0  0  0
   -4.2251    8.3392   -7.4067 H   0  0  0  0  0  0  0  0  0  0  0  0
   -3.6327    9.5286   -9.8036 H   0  0  0  0  0  0  0  0  0  0  0  0
   -6.0877    6.2020  -10.4924 H   0  0  0  0  0  0  0  0  0  0  0  0
   -3.7662    8.2644  -12.3144 H   0  0  0  0  0  0  0  0  0  0  0  0
   -5.3374    7.4677  -12.5289 H   0  0  0  0  0  0  0  0  0  0  0  0
   -5.2593    9.2037  -12.1714 H   0  0  0  0  0  0  0  0  0  0  0  0
  1  2  1  0  0  0  0
  2  3  1  0  0  0  0
  3  4  1  0  0  0  0
  4  5  1  0  0  0  0
  5  6  1  0  0  0  0
  6  7  1  0  0  0  0
  7  8  1  0  0  0  0
  8  9  1  0  0  0  0
  9 10  1  0  0  0  0
 10 11  1  0  0  0  0
 11 12  1  0  0  0  0
 12 13  1  0  0  0  0
 13 14  1  0  0  0  0
 14 15  1  0  0  0  0
 15 16  4  0  0  0  0
 16 17  2  0  0  0  0
 17 18  4  0  0  0  0
 15 19  4  0  0  0  0
 18 19  4  0  0  0  0
 18 20  1  0  0  0  0
  1 21  1  0  0  0  0
  1 22  1  0  0  0  0
  1 23  1  0  0  0  0
  2 24  1  0  0  0  0
  2 25  1  0  0  0  0
  3 26  1  0  0  0  0
  3 27  1  0  0  0  0
  4 28  1  0  0  0  0
  4 29  1  0  0  0  0
  5 30  1  0  0  0  0
  5 31  1  0  0  0  0
  6 32  1  0  0  0  0
  6 33  1  0  0  0  0
  7 34  1  0  0  0  0
  7 35  1  0  0  0  0
  8 36  1  0  0  0  0
  8 37  1  0  0  0  0
  9 38  1  0  0  0  0
  9 39  1  0  0  0  0
 10 40  1  0  0  0  0
 10 41  1  0  0  0  0
 11 42  1  0  0  0  0
 11 43  1  0  0  0  0
 12 44  1  0  0  0  0
 12 45  1  0  0  0  0
 13 46  1  0  0  0  0
 13 47  1  0  0  0  0
 14 48  1  0  0  0  0
 14 49  1  0  0  0  0
 16 50  1  0  0  0  0
 17 51  1  0  0  0  0
 19 52  1  0  0  0  0
 20 53  1  0  0  0  0
 20 54  1  0  0  0  0
 20 55  1  0  0  0  0
M  CHG  1   1   1
M  END
