102

C          1.31976       -0.47183        0.00800
C          1.30904       -0.21296        1.50754
C          1.80019        1.18425        1.90983
C          1.11879        2.36663        1.20995
C         -0.40271        2.40593        1.36043
C         -0.89768        3.00011        2.68699
C         -1.23511        4.50004        2.65976
C         -2.15386        5.03703        1.54706
N         -3.61193        4.91338        1.79828
C         -4.31302        3.71266        1.91352
C         -3.97198        2.39390        1.63432
C         -4.89634        1.40795        2.00446
Cl        -4.45083       -0.23079        1.68245
C         -6.12719        1.74384        2.60263
C         -6.49207        3.08008        2.80909
C         -5.56289        4.04453        2.42185
N         -5.67829        5.42755        2.27769
C         -4.48388        5.95344        1.89825
C         -4.17955        7.39161        1.52451
C         -4.81966        8.50081        1.92451
C         -4.52058        9.83343        1.43781
C         -5.21330       10.97159        1.67156
N         -6.47128       11.10176        2.30936
C         -7.62289       10.20964        2.24078
C         -8.07839        9.83724        3.64585
C         -9.52361        9.46360        3.59174
O         -9.98652        8.57316        2.89731
O        -10.28743       10.22585        4.39076
C         -6.78853       12.49048        2.28134
C         -5.71466       13.18875        1.68327
N         -4.73760       12.25215        1.30270
C         -3.39697       12.68155        0.92851
C         -2.48015       12.89368        2.14628
C         -1.90501       11.62126        2.78716
C         -1.01459       10.80397        1.83981
C          0.47594       10.88560        2.17368
C          0.90975       10.05881        3.38820
C          0.64033        8.55239        3.29898
C          1.20607        7.90146        2.04575
C         -5.77579       14.55812        1.50675
C         -6.92906       15.23413        1.92985
C         -7.99352       14.53638        2.53456
C         -7.92346       13.15227        2.71787
Cl        -9.43548       15.33026        3.06581
Cl        -6.99427       16.94113        1.65844
C         -7.00065        6.09925        2.22239
C         -7.50577        6.24119        0.79450
C         -8.03535        4.92112        0.33195
O         -8.87914        4.25312        0.90578
O         -7.43184        4.46889       -0.77962
Cl        -7.27526        0.54018        3.06946
H          0.60350        0.16757       -0.51690
H          1.03977       -1.51069       -0.19571
H          2.31402       -0.29920       -0.41499
H          0.29974       -0.38612        1.89726
H          1.95136       -0.95684        1.99430
H          1.69079        1.29074        2.99538
H          2.87624        1.24443        1.70284
H          1.55352        3.30398        1.57740
H          1.36122        2.32358        0.14092
H         -0.80480        2.95687        0.50802
H         -0.81080        1.39561        1.25847
H         -1.77843        2.44831        3.02597
H         -0.15017        2.82673        3.47152
H         -1.65465        4.77755        3.63505
H         -0.27796        5.02858        2.57909
H         -1.91856        6.10217        1.46469
H         -1.94733        4.61343        0.56283
H         -3.04708        2.14075        1.13930
H         -7.46009        3.34783        3.21674
H         -3.35527        7.50114        0.82615
H         -5.56132        8.45946        2.70758
H         -3.60449        9.91650        0.85938
H         -8.43568       10.66708        1.65878
H         -7.38705        9.29874        1.68049
H         -7.51585        8.98560        4.04142
H         -7.93720       10.65790        4.35743
H        -11.21426        9.92278        4.28281
H         -2.96548       11.97667        0.21290
H         -3.44878       13.62571        0.37285
H         -1.63673       13.52306        1.83592
H         -3.01711       13.45750        2.91960
H         -1.34344       11.91262        3.68268
H         -2.72325       10.99398        3.15357
H         -1.34394        9.75993        1.84608
H         -1.13177       11.14421        0.80670
H          1.04783       10.55737        1.29748
H          0.75517       11.93397        2.33623
H          1.98759       10.20939        3.52965
H          0.42668       10.44726        4.29220
H          1.08946        8.07159        4.17648
H         -0.43548        8.35319        3.35940
H          2.26529        8.14418        1.91753
H          1.11632        6.81370        2.11115
H          0.66442        8.22132        1.15030
H         -4.97369       15.10592        1.02698
H         -8.74588       12.62743        3.18900
H         -7.70985        5.54379        2.84486
H         -6.92448        7.06804        2.70569
H         -8.32461        6.96494        0.73591
H         -6.71204        6.58161        0.12135
H         -7.91091        3.64246       -1.01649
