 xtb: 6.7.1 (edcfbbe)
          12202407113D

 27 27  0     0  0            999 V2000
    0.4900   -0.1917    1.0521 C   0  0  0  0  0  0  0  0  0  0  0  0
    0.0430    1.1700    0.9968 O   0  0  0  0  0  0  0  0  0  0  0  0
    0.9893    2.1088    1.0384 C   0  0  0  0  0  0  0  0  0  0  0  0
    2.1619    1.9200    1.1185 O   0  0  0  0  0  0  0  0  0  0  0  0
    0.3695    3.5202    0.9658 C   0  0  0  0  0  0  0  0  0  0  0  0
    0.9974    4.2897   -0.2111 C   0  0  0  0  0  0  0  0  0  0  0  0
    0.5500    3.6471   -1.4982 C   0  0  0  0  0  0  0  0  0  0  0  0
   -0.6651    4.0247   -2.0766 C   0  0  0  0  0  0  0  0  0  0  0  0
   -1.1351    3.3705   -3.2080 C   0  0  0  0  0  0  0  0  0  0  0  0
   -0.4083    2.3289   -3.7560 C   0  0  0  0  0  0  0  0  0  0  0  0
    0.8017    1.9566   -3.1902 C   0  0  0  0  0  0  0  0  0  0  0  0
    1.2766    2.6071   -2.0645 C   0  0  0  0  0  0  0  0  0  0  0  0
   -1.1041    3.4279    0.7566 N   0  0  0  0  0  0  0  0  0  0  0  0
   -0.3767   -0.8027    0.8167 H   0  0  0  0  0  0  0  0  0  0  0  0
    0.8627   -0.4200    2.0506 H   0  0  0  0  0  0  0  0  0  0  0  0
    1.2870   -0.3518    0.3264 H   0  0  0  0  0  0  0  0  0  0  0  0
    0.5902    4.0223    1.9121 H   0  0  0  0  0  0  0  0  0  0  0  0
    0.6959    5.3374   -0.1710 H   0  0  0  0  0  0  0  0  0  0  0  0
    2.0813    4.2397   -0.1098 H   0  0  0  0  0  0  0  0  0  0  0  0
   -1.1936    4.9021   -1.7207 H   0  0  0  0  0  0  0  0  0  0  0  0
   -2.0624    3.6852   -3.6617 H   0  0  0  0  0  0  0  0  0  0  0  0
   -0.7725    1.8212   -4.6350 H   0  0  0  0  0  0  0  0  0  0  0  0
    1.3800    1.1602   -3.6314 H   0  0  0  0  0  0  0  0  0  0  0  0
    2.2225    2.3209   -1.6314 H   0  0  0  0  0  0  0  0  0  0  0  0
   -1.4395    2.5209    1.1118 H   0  0  0  0  0  0  0  0  0  0  0  0
   -1.6144    4.1978    1.1998 H   0  0  0  0  0  0  0  0  0  0  0  0
   -1.2441    3.4641   -0.2937 H   0  0  0  0  0  0  0  0  0  0  0  0
  1  2  1  0  0  0  0
  2  3  1  0  0  0  0
  3  4  2  0  0  0  0
  3  5  1  0  0  0  0
  5  6  1  0  0  0  0
  6  7  1  0  0  0  0
  7  8  4  0  0  0  0
  8  9  4  0  0  0  0
  9 10  4  0  0  0  0
 10 11  4  0  0  0  0
  7 12  4  0  0  0  0
 11 12  4  0  0  0  0
  5 13  1  0  0  0  0
  1 14  1  0  0  0  0
  1 15  1  0  0  0  0
  1 16  1  0  0  0  0
  5 17  1  0  0  0  0
  6 18  1  0  0  0  0
  6 19  1  0  0  0  0
  8 20  1  0  0  0  0
  9 21  1  0  0  0  0
 10 22  1  0  0  0  0
 11 23  1  0  0  0  0
 12 24  1  0  0  0  0
 13 25  1  0  0  0  0
 13 26  1  0  0  0  0
 13 27  1  0  0  0  0
M  CHG  1   1   1
M  END
