 xtb: 6.7.1 (edcfbbe)
          12202407113D

 43 45  0     0  0            999 V2000
   -1.2443   -1.2011   -0.2434 C   0  0  0  0  0  0  0  0  0  0  0  0
   -0.2165   -2.1419   -0.8864 C   0  0  0  0  0  0  0  0  0  0  0  0
    0.6772   -2.7299    0.1353 C   0  0  0  0  0  0  0  0  0  0  0  0
    0.4963   -3.9363    0.6857 N   0  0  0  0  0  0  0  0  0  0  0  0
   -0.5028   -4.7794    0.3242 O   0  0  0  0  0  0  0  0  0  0  0  0
   -0.0359   -6.0382   -0.2139 C   0  0  0  0  0  0  0  0  0  0  0  0
    0.9368   -5.8418   -1.3443 C   0  0  0  0  0  0  0  0  0  0  0  0
    2.3003   -6.0148   -1.1376 C   0  0  0  0  0  0  0  0  0  0  0  0
    3.1933   -5.8153   -2.1761 C   0  0  0  0  0  0  0  0  0  0  0  0
    2.7316   -5.4300   -3.4237 C   0  0  0  0  0  0  0  0  0  0  0  0
    1.3748   -5.2405   -3.6316 C   0  0  0  0  0  0  0  0  0  0  0  0
    0.4802   -5.4450   -2.5964 C   0  0  0  0  0  0  0  0  0  0  0  0
    1.4443   -4.1569    1.6412 C   0  0  0  0  0  0  0  0  0  0  0  0
    2.2180   -3.0428    1.6703 C   0  0  0  0  0  0  0  0  0  0  0  0
    1.7252   -2.1684    0.7448 N   0  0  0  0  0  0  0  0  0  0  0  0
    2.3175   -0.8748    0.4633 C   0  0  0  0  0  0  0  0  0  0  0  0
    3.7933   -1.0131    0.1880 C   0  0  0  0  0  0  0  0  0  0  0  0
    4.7397   -0.4199    1.0150 C   0  0  0  0  0  0  0  0  0  0  0  0
    6.0926   -0.5376    0.7590 C   0  0  0  0  0  0  0  0  0  0  0  0
    6.5206   -1.2696   -0.3415 C   0  0  0  0  0  0  0  0  0  0  0  0
    5.5946   -1.8764   -1.1817 C   0  0  0  0  0  0  0  0  0  0  0  0
    4.2451   -1.7411   -0.9120 C   0  0  0  0  0  0  0  0  0  0  0  0
    3.1064   -2.4986   -1.9787 Cl  0  0  0  0  0  0  0  0  0  0  0  0
    8.1957   -1.4281   -0.6755 Cl  0  0  0  0  0  0  0  0  0  0  0  0
   -1.8680   -1.7441    0.4613 H   0  0  0  0  0  0  0  0  0  0  0  0
   -1.8838   -0.7853   -1.0157 H   0  0  0  0  0  0  0  0  0  0  0  0
   -0.7581   -0.3812    0.2787 H   0  0  0  0  0  0  0  0  0  0  0  0
   -0.7409   -2.9573   -1.3866 H   0  0  0  0  0  0  0  0  0  0  0  0
    0.3722   -1.6040   -1.6308 H   0  0  0  0  0  0  0  0  0  0  0  0
    0.4028   -6.6427    0.5864 H   0  0  0  0  0  0  0  0  0  0  0  0
   -0.9622   -6.5056   -0.5506 H   0  0  0  0  0  0  0  0  0  0  0  0
    2.6661   -6.3271   -0.1692 H   0  0  0  0  0  0  0  0  0  0  0  0
    4.2491   -5.9657   -2.0094 H   0  0  0  0  0  0  0  0  0  0  0  0
    3.4275   -5.2811   -4.2350 H   0  0  0  0  0  0  0  0  0  0  0  0
    1.0124   -4.9423   -4.6033 H   0  0  0  0  0  0  0  0  0  0  0  0
   -0.5793   -5.3128   -2.7613 H   0  0  0  0  0  0  0  0  0  0  0  0
    1.4880   -5.0554    2.2208 H   0  0  0  0  0  0  0  0  0  0  0  0
    3.0730   -2.8117    2.2719 H   0  0  0  0  0  0  0  0  0  0  0  0
    1.8139   -0.4471   -0.4055 H   0  0  0  0  0  0  0  0  0  0  0  0
    2.1616   -0.2181    1.3236 H   0  0  0  0  0  0  0  0  0  0  0  0
    4.4124    0.1546    1.8684 H   0  0  0  0  0  0  0  0  0  0  0  0
    6.8141   -0.0646    1.4048 H   0  0  0  0  0  0  0  0  0  0  0  0
    5.9276   -2.4389   -2.0389 H   0  0  0  0  0  0  0  0  0  0  0  0
  1  2  1  0  0  0  0
  2  3  1  0  0  0  0
  3  4  4  0  0  0  0
  4  5  1  0  0  0  0
  5  6  1  0  0  0  0
  6  7  1  0  0  0  0
  7  8  4  0  0  0  0
  8  9  4  0  0  0  0
  9 10  4  0  0  0  0
 10 11  4  0  0  0  0
  7 12  4  0  0  0  0
 11 12  4  0  0  0  0
  4 13  1  0  0  0  0
 13 14  2  0  0  0  0
  3 15  4  0  0  0  0
 14 15  4  0  0  0  0
 15 16  1  0  0  0  0
 16 17  1  0  0  0  0
 17 18  4  0  0  0  0
 18 19  4  0  0  0  0
 19 20  4  0  0  0  0
 20 21  4  0  0  0  0
 17 22  4  0  0  0  0
 21 22  4  0  0  0  0
 22 23  1  0  0  0  0
 20 24  1  0  0  0  0
  1 25  1  0  0  0  0
  1 26  1  0  0  0  0
  1 27  1  0  0  0  0
  2 28  1  0  0  0  0
  2 29  1  0  0  0  0
  6 30  1  0  0  0  0
  6 31  1  0  0  0  0
  8 32  1  0  0  0  0
  9 33  1  0  0  0  0
 10 34  1  0  0  0  0
 11 35  1  0  0  0  0
 12 36  1  0  0  0  0
 13 37  1  0  0  0  0
 14 38  1  0  0  0  0
 16 39  1  0  0  0  0
 16 40  1  0  0  0  0
 18 41  1  0  0  0  0
 19 42  1  0  0  0  0
 21 43  1  0  0  0  0
M  CHG  1   1   1
M  END
