 xtb: 6.7.1 (edcfbbe)
          12202407113D

 18 18  0     0  0            999 V2000
    0.9980    0.0163    0.0076 C   0  0  0  0  0  0  0  0  0  0  0  0
    0.4809    0.7416    1.1874 C   0  0  0  0  0  0  0  0  0  0  0  0
   -0.2738    0.1058    2.1797 C   0  0  0  0  0  0  0  0  0  0  0  0
   -0.7298    0.8146    3.2649 C   0  0  0  0  0  0  0  0  0  0  0  0
   -0.4691    2.1224    3.4065 N   0  0  0  0  0  0  0  0  0  0  0  0
    0.2502    2.7627    2.4757 C   0  0  0  0  0  0  0  0  0  0  0  0
    0.7328    2.1066    1.3684 C   0  0  0  0  0  0  0  0  0  0  0  0
   -0.9808    2.8219    4.5632 C   0  0  0  0  0  0  0  0  0  0  0  0
    0.7415    0.5459   -0.9091 H   0  0  0  0  0  0  0  0  0  0  0  0
    0.6131   -0.9977   -0.0429 H   0  0  0  0  0  0  0  0  0  0  0  0
    2.0873   -0.0265    0.0490 H   0  0  0  0  0  0  0  0  0  0  0  0
   -0.5036   -0.9452    2.1003 H   0  0  0  0  0  0  0  0  0  0  0  0
   -1.3150    0.3443    4.0417 H   0  0  0  0  0  0  0  0  0  0  0  0
    0.4357    3.8157    2.6282 H   0  0  0  0  0  0  0  0  0  0  0  0
    1.3088    2.6537    0.6383 H   0  0  0  0  0  0  0  0  0  0  0  0
   -2.0719    2.8300    4.5451 H   0  0  0  0  0  0  0  0  0  0  0  0
   -0.6566    2.3247    5.4780 H   0  0  0  0  0  0  0  0  0  0  0  0
   -0.6241    3.8492    4.5767 H   0  0  0  0  0  0  0  0  0  0  0  0
  1  2  1  0  0  0  0
  2  3  4  0  0  0  0
  3  4  4  0  0  0  0
  4  5  4  0  0  0  0
  5  6  4  0  0  0  0
  2  7  4  0  0  0  0
  6  7  4  0  0  0  0
  5  8  1  0  0  0  0
  1  9  1  0  0  0  0
  1 10  1  0  0  0  0
  1 11  1  0  0  0  0
  3 12  1  0  0  0  0
  4 13  1  0  0  0  0
  6 14  1  0  0  0  0
  7 15  1  0  0  0  0
  8 16  1  0  0  0  0
  8 17  1  0  0  0  0
  8 18  1  0  0  0  0
M  CHG  1   1   1
M  END
