43

C         -0.81511       -0.18294        0.25589
C         -0.42648       -1.43418       -0.49893
C          0.62749       -2.35149        0.07527
N          0.59875       -3.69665       -0.05640
O         -0.35514       -4.30226       -0.90637
C         -0.34476       -5.73475       -0.93960
C          0.81344       -6.33912       -1.70022
C          1.14226       -7.68631       -1.47771
C          2.19963       -8.28338       -2.16521
C          2.93550       -7.54542       -3.08850
C          2.60713       -6.21426       -3.33494
C          1.54577       -5.61543       -2.65301
C          1.61025       -4.29649        0.65342
C          2.33782       -3.27644        1.19258
N          1.76133       -2.07729        0.77200
C          2.32086       -0.75140        1.06395
C          3.73421       -0.63746        0.54290
C          4.80372       -0.57536        1.45593
C          6.11943       -0.43955        1.00504
C          6.38147       -0.36379       -0.36006
C          5.34077       -0.42354       -1.28066
C          4.02506       -0.55808       -0.83102
Cl         2.78081       -0.60699       -2.02666
Cl         7.99972       -0.19000       -0.91125
H         -0.81891       -0.34943        1.33672
H         -1.81352        0.14678       -0.04984
H         -0.13728        0.64426        0.02976
H         -1.31968       -2.06447       -0.56988
H         -0.10146       -1.20635       -1.51706
H         -0.39784       -6.11824        0.08588
H         -1.26922       -6.03895       -1.44351
H          0.57208       -8.28978       -0.77309
H          2.44374       -9.32920       -1.99043
H          3.75538       -8.01370       -3.62893
H          3.17321       -5.64726       -4.07092
H          1.30283       -4.58003       -2.88137
H          1.72545       -5.36322        0.69007
H          3.22430       -3.25227        1.80281
H          1.72407        0.04495        0.62766
H          2.28572       -0.61579        2.15175
H          4.62795       -0.61710        2.53044
H          6.93665       -0.38309        1.72208
H          5.55511       -0.35630       -2.34510
