48

C          1.04702       -0.03373       -0.40775
C          0.51278        1.25110        0.21298
C          1.19274        2.50366       -0.34340
C          2.55679        2.77715        0.26176
O          3.35973        1.95370        0.65493
O          2.75554        4.13122        0.33940
C          1.63069        4.79698       -0.22770
C          0.47631        3.82967       -0.03118
C         -0.09617        3.87759        1.40000
C         -0.68585        5.18818        1.79017
C         -1.73394        5.89452        1.23455
N         -1.97954        6.98862        2.04531
C         -1.06570        7.02767        3.02134
N         -0.28432        5.94397        2.90389
C          0.80338        5.66012        3.84220
C         -3.02158        8.00596        1.88590
C         -4.40656        7.42879        1.69272
C         -5.22650        8.05713        0.72952
C         -6.54441        7.65327        0.51836
C         -7.07159        6.60663        1.26037
C         -6.28711        5.97845        2.22492
C         -4.96548        6.39382        2.47669
C         -4.21761        5.67672        3.56713
H          0.89862       -0.03579       -1.49211
H          0.51685       -0.89756        0.00661
H          2.11312       -0.16862       -0.20557
H         -0.56388        1.29812        0.01095
H          0.64302        1.18682        1.29994
H          1.32949        2.41222       -1.42885
H          1.83510        4.98282       -1.28869
H          1.49010        5.76141        0.26704
H         -0.32597        4.02882       -0.75096
H         -0.90330        3.14207        1.50102
H          0.67270        3.59207        2.12208
H         -2.37622        5.72241        0.38615
H         -0.98273        7.78941        3.78870
H          1.71305        6.14557        3.48027
H          0.54037        6.06338        4.82498
H          0.96246        4.58648        3.94864
H         -2.72412        8.61493        1.02329
H         -3.02907        8.65748        2.76715
H         -4.85240        8.89227        0.13763
H         -7.16317        8.16179       -0.21807
H         -8.09935        6.28756        1.10101
H         -6.72971        5.16679        2.80188
H         -4.90809        5.21518        4.28180
H         -3.60035        4.88005        3.14220
H         -3.59521        6.36748        4.14184
