13

C          1.03109       -0.09130       -0.05791
S          0.60229       -1.79323       -0.49308
C         -1.17266       -1.51321       -0.69541
C          1.03109       -1.67208       -2.24558
H          0.66593        0.11629        0.95104
H          0.59036        0.62297       -0.75766
H          2.11906        0.01153       -0.07112
H         -1.37034       -0.64212       -1.32485
H         -1.61869       -2.40015       -1.15238
H         -1.61869       -1.35780        0.29015
H          0.59036       -0.78347       -2.70405
H          2.11905       -1.62726       -2.33906
H          0.66593       -2.56485       -2.75942
