 xtb: 6.7.1 (edcfbbe)
          12202407113D

 30 30  0     0  0            999 V2000
    2.4057   -0.1813   -1.5085 N   0  0  0  0  0  0  0  0  0  0  0  0
    2.7739   -0.1628   -0.4256 C   0  0  0  0  0  0  0  0  0  0  0  0
    3.2801   -0.2054    0.9178 C   0  0  0  0  0  0  0  0  0  0  0  0
    4.6215   -0.9507    0.9853 C   0  0  0  0  0  0  0  0  0  0  0  0
    4.5125   -2.4365    0.6209 C   0  0  0  0  0  0  0  0  0  0  0  0
    4.2256   -2.6320   -0.7849 N   0  0  0  0  0  0  0  0  0  0  0  0
    3.0783   -3.1277   -1.3263 C   0  0  0  0  0  0  0  0  0  0  0  0
    3.2057   -3.0581   -2.6796 C   0  0  0  0  0  0  0  0  0  0  0  0
    4.4301   -2.5228   -2.9432 N   0  0  0  0  0  0  0  0  0  0  0  0
    5.0308   -2.2813   -1.7838 C   0  0  0  0  0  0  0  0  0  0  0  0
    4.9783   -2.2313   -4.2497 C   0  0  0  0  0  0  0  0  0  0  0  0
    4.2336   -1.1011   -4.9746 C   0  0  0  0  0  0  0  0  0  0  0  0
    4.0574    0.1795   -4.1371 C   0  0  0  0  0  0  0  0  0  0  0  0
    5.1360    0.3935   -3.2139 C   0  0  0  0  0  0  0  0  0  0  0  0
    5.9622    0.4814   -2.4270 N   0  0  0  0  0  0  0  0  0  0  0  0
    3.4169    0.8238    1.2623 H   0  0  0  0  0  0  0  0  0  0  0  0
    2.5336   -0.6809    1.5612 H   0  0  0  0  0  0  0  0  0  0  0  0
    5.3404   -0.4597    0.3268 H   0  0  0  0  0  0  0  0  0  0  0  0
    4.9996   -0.8841    2.0052 H   0  0  0  0  0  0  0  0  0  0  0  0
    5.4589   -2.9317    0.8552 H   0  0  0  0  0  0  0  0  0  0  0  0
    3.7180   -2.9153    1.1971 H   0  0  0  0  0  0  0  0  0  0  0  0
    2.2620   -3.4840   -0.7323 H   0  0  0  0  0  0  0  0  0  0  0  0
    2.5219   -3.3476   -3.4509 H   0  0  0  0  0  0  0  0  0  0  0  0
    6.0097   -1.8551   -1.6723 H   0  0  0  0  0  0  0  0  0  0  0  0
    6.0261   -1.9559   -4.1121 H   0  0  0  0  0  0  0  0  0  0  0  0
    4.9315   -3.1371   -4.8604 H   0  0  0  0  0  0  0  0  0  0  0  0
    4.8099   -0.8780   -5.8734 H   0  0  0  0  0  0  0  0  0  0  0  0
    3.2474   -1.4430   -5.2896 H   0  0  0  0  0  0  0  0  0  0  0  0
    3.9714    1.0468   -4.7944 H   0  0  0  0  0  0  0  0  0  0  0  0
    3.1461    0.1262   -3.5312 H   0  0  0  0  0  0  0  0  0  0  0  0
  1  2  3  0  0  0  0
  2  3  1  0  0  0  0
  3  4  1  0  0  0  0
  4  5  1  0  0  0  0
  5  6  1  0  0  0  0
  6  7  4  0  0  0  0
  7  8  2  0  0  0  0
  8  9  4  0  0  0  0
  6 10  4  0  0  0  0
  9 10  4  0  0  0  0
  9 11  1  0  0  0  0
 11 12  1  0  0  0  0
 12 13  1  0  0  0  0
 13 14  1  0  0  0  0
 14 15  3  0  0  0  0
  3 16  1  0  0  0  0
  3 17  1  0  0  0  0
  4 18  1  0  0  0  0
  4 19  1  0  0  0  0
  5 20  1  0  0  0  0
  5 21  1  0  0  0  0
  7 22  1  0  0  0  0
  8 23  1  0  0  0  0
 10 24  1  0  0  0  0
 11 25  1  0  0  0  0
 11 26  1  0  0  0  0
 12 27  1  0  0  0  0
 12 28  1  0  0  0  0
 13 29  1  0  0  0  0
 13 30  1  0  0  0  0
M  CHG  1   1   1
M  END
