 xtb: 6.7.1 (edcfbbe)
          12202407123D

 44 43  0     0  0            999 V2000
    2.4509   -0.5446    0.5230 C   0  0  0  0  0  0  0  0  0  0  0  0
    1.2290   -0.9800    1.3237 C   0  0  0  0  0  0  0  0  0  0  0  0
    0.9360   -0.0542    2.5104 C   0  0  0  0  0  0  0  0  0  0  0  0
    0.4445    1.3444    2.1141 C   0  0  0  0  0  0  0  0  0  0  0  0
   -1.0268    1.5956    2.2057 N   0  0  0  0  0  0  0  0  0  0  0  0
   -1.4895    1.5799    3.6328 C   0  0  0  0  0  0  0  0  0  0  0  0
   -0.9623    2.6850    4.5587 C   0  0  0  0  0  0  0  0  0  0  0  0
   -1.9562    3.8222    4.8254 C   0  0  0  0  0  0  0  0  0  0  0  0
   -3.1505    3.3802    5.6634 C   0  0  0  0  0  0  0  0  0  0  0  0
   -1.3387    2.9335    1.6106 C   0  0  0  0  0  0  0  0  0  0  0  0
   -1.1363    3.0805    0.0948 C   0  0  0  0  0  0  0  0  0  0  0  0
   -2.4474    3.1326   -0.6984 C   0  0  0  0  0  0  0  0  0  0  0  0
   -3.2205    4.4257   -0.4689 C   0  0  0  0  0  0  0  0  0  0  0  0
   -1.7836    0.5523    1.4896 C   0  0  0  0  0  0  0  0  0  0  0  0
    2.3159    0.4335    0.0655 H   0  0  0  0  0  0  0  0  0  0  0  0
    2.6453   -1.2585   -0.2720 H   0  0  0  0  0  0  0  0  0  0  0  0
    3.3291   -0.5027    1.1623 H   0  0  0  0  0  0  0  0  0  0  0  0
    0.3651   -1.0517    0.6613 H   0  0  0  0  0  0  0  0  0  0  0  0
    1.4167   -1.9793    1.7185 H   0  0  0  0  0  0  0  0  0  0  0  0
    0.2355   -0.5452    3.1855 H   0  0  0  0  0  0  0  0  0  0  0  0
    1.8655    0.0669    3.0691 H   0  0  0  0  0  0  0  0  0  0  0  0
    0.9316    2.0915    2.7399 H   0  0  0  0  0  0  0  0  0  0  0  0
    0.7476    1.5363    1.0856 H   0  0  0  0  0  0  0  0  0  0  0  0
   -2.5795    1.6290    3.6170 H   0  0  0  0  0  0  0  0  0  0  0  0
   -1.2126    0.6080    4.0409 H   0  0  0  0  0  0  0  0  0  0  0  0
   -0.7246    2.2269    5.5200 H   0  0  0  0  0  0  0  0  0  0  0  0
   -0.0306    3.1067    4.1825 H   0  0  0  0  0  0  0  0  0  0  0  0
   -1.4252    4.6042    5.3701 H   0  0  0  0  0  0  0  0  0  0  0  0
   -2.3079    4.2625    3.8912 H   0  0  0  0  0  0  0  0  0  0  0  0
   -2.8176    2.9620    6.6102 H   0  0  0  0  0  0  0  0  0  0  0  0
   -3.7874    4.2336    5.8765 H   0  0  0  0  0  0  0  0  0  0  0  0
   -3.7561    2.6330    5.1545 H   0  0  0  0  0  0  0  0  0  0  0  0
   -2.3844    3.1426    1.8410 H   0  0  0  0  0  0  0  0  0  0  0  0
   -0.7252    3.6662    2.1334 H   0  0  0  0  0  0  0  0  0  0  0  0
   -0.5986    4.0114   -0.0910 H   0  0  0  0  0  0  0  0  0  0  0  0
   -0.5143    2.2803   -0.3057 H   0  0  0  0  0  0  0  0  0  0  0  0
   -2.2026    3.0613   -1.7590 H   0  0  0  0  0  0  0  0  0  0  0  0
   -3.0801    2.2775   -0.4532 H   0  0  0  0  0  0  0  0  0  0  0  0
   -2.6109    5.2847   -0.7367 H   0  0  0  0  0  0  0  0  0  0  0  0
   -4.1129    4.4386   -1.0882 H   0  0  0  0  0  0  0  0  0  0  0  0
   -3.5317    4.5386    0.5675 H   0  0  0  0  0  0  0  0  0  0  0  0
   -1.4493    0.4820    0.4581 H   0  0  0  0  0  0  0  0  0  0  0  0
   -1.6482   -0.4143    1.9682 H   0  0  0  0  0  0  0  0  0  0  0  0
   -2.8445    0.7962    1.4970 H   0  0  0  0  0  0  0  0  0  0  0  0
  1  2  1  0  0  0  0
  2  3  1  0  0  0  0
  3  4  1  0  0  0  0
  4  5  1  0  0  0  0
  5  6  1  0  0  0  0
  6  7  1  0  0  0  0
  7  8  1  0  0  0  0
  8  9  1  0  0  0  0
  5 10  1  0  0  0  0
 10 11  1  0  0  0  0
 11 12  1  0  0  0  0
 12 13  1  0  0  0  0
  5 14  1  0  0  0  0
  1 15  1  0  0  0  0
  1 16  1  0  0  0  0
  1 17  1  0  0  0  0
  2 18  1  0  0  0  0
  2 19  1  0  0  0  0
  3 20  1  0  0  0  0
  3 21  1  0  0  0  0
  4 22  1  0  0  0  0
  4 23  1  0  0  0  0
  6 24  1  0  0  0  0
  6 25  1  0  0  0  0
  7 26  1  0  0  0  0
  7 27  1  0  0  0  0
  8 28  1  0  0  0  0
  8 29  1  0  0  0  0
  9 30  1  0  0  0  0
  9 31  1  0  0  0  0
  9 32  1  0  0  0  0
 10 33  1  0  0  0  0
 10 34  1  0  0  0  0
 11 35  1  0  0  0  0
 11 36  1  0  0  0  0
 12 37  1  0  0  0  0
 12 38  1  0  0  0  0
 13 39  1  0  0  0  0
 13 40  1  0  0  0  0
 13 41  1  0  0  0  0
 14 42  1  0  0  0  0
 14 43  1  0  0  0  0
 14 44  1  0  0  0  0
M  CHG  1   1   1
M  END
