59

C          1.11672        0.20990        0.71500
C          1.17529        1.32422       -0.31886
C          1.55693        0.84005       -1.72071
C          0.61712       -0.20023       -2.33959
C         -0.84927        0.22709       -2.45131
C         -1.10827        1.44063       -3.35137
C         -0.75438        1.25164       -4.83240
C         -1.40820        0.04809       -5.52380
C         -2.93566       -0.01405       -5.42162
C         -3.68357        1.07653       -6.19823
C         -3.66534        0.93484       -7.72996
C         -4.27949       -0.35276       -8.29639
N         -5.78749       -0.27726       -8.63483
C         -6.12680        0.71648       -9.78088
C         -5.35394        0.54154      -11.09633
O         -5.79687       -0.61345      -11.82950
C         -4.84054       -1.53085      -12.14269
O         -3.70196       -1.52110      -11.69720
C         -5.38089       -2.58124      -13.06430
C         -6.24380       -1.69601       -9.00321
C         -6.61468        0.13202       -7.41388
H          0.31185       -0.49849        0.49786
H          0.92848        0.62875        1.70882
H          2.06197       -0.34059        0.75310
H          0.21488        1.85045       -0.34434
H          1.92028        2.06062        0.00593
H          1.62699        1.70953       -2.38469
H          2.56569        0.40973       -1.68138
H          0.99844       -0.46826       -3.33192
H          0.66451       -1.12293       -1.74872
H         -1.43209       -0.62892       -2.81020
H         -1.24426        0.44431       -1.45219
H         -2.16759        1.71200       -3.26887
H         -0.55772        2.30775       -2.96835
H         -1.02321        2.16805       -5.37117
H          0.33377        1.15879       -4.93328
H         -1.10477        0.03868       -6.57693
H         -0.99699       -0.87236       -5.09201
H         -3.26397       -1.00541       -5.74777
H         -3.23573        0.04696       -4.36972
H         -4.71547        1.09496       -5.83891
H         -3.27083        2.05817       -5.93772
H         -4.13278        1.82053       -8.17114
H         -2.61738        0.97075       -8.05259
H         -3.76740       -0.62308       -9.22333
H         -4.15741       -1.19854       -7.61486
H         -7.20318        0.61131       -9.96316
H         -5.94486        1.72145       -9.38660
H         -5.59471        1.39945      -11.73540
H         -4.27155        0.57978      -10.94471
H         -6.47326       -2.53678      -13.10412
H         -4.97762       -2.42945      -14.06770
H         -5.10125       -3.56781      -12.68478
H         -5.54644       -2.12044       -9.72390
H         -6.23162       -2.30745       -8.09490
H         -7.25689       -1.64569       -9.41162
H         -6.32493       -0.49906       -6.56882
H         -6.43327        1.18854       -7.20285
H         -7.67350       -0.01422       -7.65024
