 xtb: 6.7.1 (edcfbbe)
          12202407123D

 59 58  0     0  0            999 V2000
    1.5375    0.7904    0.4335 C   0  0  0  0  0  0  0  0  0  0  0  0
    1.2465    1.7808   -0.6877 C   0  0  0  0  0  0  0  0  0  0  0  0
    1.5785    1.2346   -2.0773 C   0  0  0  0  0  0  0  0  0  0  0  0
    0.7790   -0.0020   -2.4937 C   0  0  0  0  0  0  0  0  0  0  0  0
   -0.7398    0.1801   -2.4946 C   0  0  0  0  0  0  0  0  0  0  0  0
   -1.2553    1.2893   -3.4133 C   0  0  0  0  0  0  0  0  0  0  0  0
   -0.9298    1.1021   -4.8967 C   0  0  0  0  0  0  0  0  0  0  0  0
   -1.4512   -0.1974   -5.5156 C   0  0  0  0  0  0  0  0  0  0  0  0
   -2.9523   -0.4415   -5.3448 C   0  0  0  0  0  0  0  0  0  0  0  0
   -3.8493    0.6259   -5.9771 C   0  0  0  0  0  0  0  0  0  0  0  0
   -3.8755    0.5736   -7.5098 C   0  0  0  0  0  0  0  0  0  0  0  0
   -4.6516   -0.6240   -8.0710 C   0  0  0  0  0  0  0  0  0  0  0  0
   -6.0299   -0.3349   -8.5851 N   0  0  0  0  0  0  0  0  0  0  0  0
   -6.0580    0.6784   -9.6857 C   0  0  0  0  0  0  0  0  0  0  0  0
   -5.0423    0.5500  -10.8251 C   0  0  0  0  0  0  0  0  0  0  0  0
   -5.3791   -0.4350  -11.7905 O   0  0  0  0  0  0  0  0  0  0  0  0
   -4.6633   -1.5811  -11.8015 C   0  0  0  0  0  0  0  0  0  0  0  0
   -3.8941   -1.8549  -10.9150 O   0  0  0  0  0  0  0  0  0  0  0  0
   -4.9757   -2.4127  -12.9969 C   0  0  0  0  0  0  0  0  0  0  0  0
   -6.6090   -1.6120   -9.0491 C   0  0  0  0  0  0  0  0  0  0  0  0
   -6.8834    0.1796   -7.4962 C   0  0  0  0  0  0  0  0  0  0  0  0
    0.8893   -0.0799    0.3686 H   0  0  0  0  0  0  0  0  0  0  0  0
    1.3755    1.2597    1.4010 H   0  0  0  0  0  0  0  0  0  0  0  0
    2.5711    0.4548    0.3854 H   0  0  0  0  0  0  0  0  0  0  0  0
    0.1977    2.0809   -0.6455 H   0  0  0  0  0  0  0  0  0  0  0  0
    1.8462    2.6799   -0.5268 H   0  0  0  0  0  0  0  0  0  0  0  0
    1.4267    2.0293   -2.8111 H   0  0  0  0  0  0  0  0  0  0  0  0
    2.6390    0.9723   -2.1023 H   0  0  0  0  0  0  0  0  0  0  0  0
    1.1093   -0.3028   -3.4906 H   0  0  0  0  0  0  0  0  0  0  0  0
    1.0200   -0.8249   -1.8185 H   0  0  0  0  0  0  0  0  0  0  0  0
   -1.1978   -0.7706   -2.7776 H   0  0  0  0  0  0  0  0  0  0  0  0
   -1.0724    0.4013   -1.4789 H   0  0  0  0  0  0  0  0  0  0  0  0
   -2.3379    1.3683   -3.2848 H   0  0  0  0  0  0  0  0  0  0  0  0
   -0.8302    2.2418   -3.0933 H   0  0  0  0  0  0  0  0  0  0  0  0
   -1.3285    1.9583   -5.4472 H   0  0  0  0  0  0  0  0  0  0  0  0
    0.1527    1.1227   -5.0289 H   0  0  0  0  0  0  0  0  0  0  0  0
   -1.1939   -0.2000   -6.5778 H   0  0  0  0  0  0  0  0  0  0  0  0
   -0.9258   -1.0391   -5.0632 H   0  0  0  0  0  0  0  0  0  0  0  0
   -3.1875   -1.4225   -5.7659 H   0  0  0  0  0  0  0  0  0  0  0  0
   -3.1793   -0.4890   -4.2799 H   0  0  0  0  0  0  0  0  0  0  0  0
   -4.8589    0.5165   -5.5764 H   0  0  0  0  0  0  0  0  0  0  0  0
   -3.4891    1.6077   -5.6728 H   0  0  0  0  0  0  0  0  0  0  0  0
   -4.2690    1.5132   -7.8972 H   0  0  0  0  0  0  0  0  0  0  0  0
   -2.8450    0.5052   -7.8581 H   0  0  0  0  0  0  0  0  0  0  0  0
   -4.0964   -1.0986   -8.8827 H   0  0  0  0  0  0  0  0  0  0  0  0
   -4.7642   -1.3699   -7.2820 H   0  0  0  0  0  0  0  0  0  0  0  0
   -7.0593    0.6612  -10.1230 H   0  0  0  0  0  0  0  0  0  0  0  0
   -5.9037    1.6614   -9.2389 H   0  0  0  0  0  0  0  0  0  0  0  0
   -5.0548    1.5005  -11.3671 H   0  0  0  0  0  0  0  0  0  0  0  0
   -4.0294    0.3671  -10.4551 H   0  0  0  0  0  0  0  0  0  0  0  0
   -5.9509   -2.1558  -13.3986 H   0  0  0  0  0  0  0  0  0  0  0  0
   -4.2228   -2.2094  -13.7581 H   0  0  0  0  0  0  0  0  0  0  0  0
   -4.9167   -3.4682  -12.7457 H   0  0  0  0  0  0  0  0  0  0  0  0
   -5.9635   -2.0795   -9.7870 H   0  0  0  0  0  0  0  0  0  0  0  0
   -6.7122   -2.2984   -8.2105 H   0  0  0  0  0  0  0  0  0  0  0  0
   -7.5918   -1.4469   -9.4869 H   0  0  0  0  0  0  0  0  0  0  0  0
   -6.9232   -0.5445   -6.6846 H   0  0  0  0  0  0  0  0  0  0  0  0
   -6.4883    1.1160   -7.1097 H   0  0  0  0  0  0  0  0  0  0  0  0
   -7.8955    0.3497   -7.8600 H   0  0  0  0  0  0  0  0  0  0  0  0
  1  2  1  0  0  0  0
  2  3  1  0  0  0  0
  3  4  1  0  0  0  0
  4  5  1  0  0  0  0
  5  6  1  0  0  0  0
  6  7  1  0  0  0  0
  7  8  1  0  0  0  0
  8  9  1  0  0  0  0
  9 10  1  0  0  0  0
 10 11  1  0  0  0  0
 11 12  1  0  0  0  0
 12 13  1  0  0  0  0
 13 14  1  0  0  0  0
 14 15  1  0  0  0  0
 15 16  1  0  0  0  0
 16 17  1  0  0  0  0
 17 18  2  0  0  0  0
 17 19  1  0  0  0  0
 13 20  1  0  0  0  0
 13 21  1  0  0  0  0
  1 22  1  0  0  0  0
  1 23  1  0  0  0  0
  1 24  1  0  0  0  0
  2 25  1  0  0  0  0
  2 26  1  0  0  0  0
  3 27  1  0  0  0  0
  3 28  1  0  0  0  0
  4 29  1  0  0  0  0
  4 30  1  0  0  0  0
  5 31  1  0  0  0  0
  5 32  1  0  0  0  0
  6 33  1  0  0  0  0
  6 34  1  0  0  0  0
  7 35  1  0  0  0  0
  7 36  1  0  0  0  0
  8 37  1  0  0  0  0
  8 38  1  0  0  0  0
  9 39  1  0  0  0  0
  9 40  1  0  0  0  0
 10 41  1  0  0  0  0
 10 42  1  0  0  0  0
 11 43  1  0  0  0  0
 11 44  1  0  0  0  0
 12 45  1  0  0  0  0
 12 46  1  0  0  0  0
 14 47  1  0  0  0  0
 14 48  1  0  0  0  0
 15 49  1  0  0  0  0
 15 50  1  0  0  0  0
 19 51  1  0  0  0  0
 19 52  1  0  0  0  0
 19 53  1  0  0  0  0
 20 54  1  0  0  0  0
 20 55  1  0  0  0  0
 20 56  1  0  0  0  0
 21 57  1  0  0  0  0
 21 58  1  0  0  0  0
 21 59  1  0  0  0  0
M  CHG  1   1   1
M  END
