44

C          1.78245       -0.59115        0.30488
C          1.12249       -0.87796        1.64581
C          1.10330        0.31742        2.60656
C          0.47891        1.62331        2.09789
N         -1.05991        1.73642        2.19361
C         -1.60744        1.43685        3.62605
C         -0.96353        2.20052        4.79215
C         -1.52317        3.57913        5.16257
C         -3.03332        3.62188        5.33072
C         -1.50145        3.17099        1.79083
C         -1.10096        3.67087        0.39358
C         -1.89202        3.18779       -0.82370
C         -3.38813        3.43816       -0.73262
C         -1.73677        0.71827        1.27197
H          1.18094        0.08960       -0.30412
H          1.89668       -1.52030       -0.26296
H          2.77602       -0.15244        0.43926
H          0.11753       -1.27108        1.47909
H          1.68075       -1.68807        2.13188
H          0.66526        0.00342        3.55802
H          2.15295        0.54495        2.83926
H          0.88225        2.46522        2.67114
H          0.75420        1.79074        1.05485
H         -2.69238        1.57809        3.58687
H         -1.44260        0.36610        3.79375
H         -1.10659        1.57028        5.68175
H          0.12124        2.27672        4.67744
H         -1.06694        3.87636        6.11591
H         -1.21403        4.34264        4.44571
H         -3.37756        2.83824        6.01265
H         -3.33640        4.58864        5.74602
H         -3.54701        3.50321        4.37256
H         -2.58151        3.24065        1.95288
H         -1.00765        3.83408        2.50205
H         -1.21620        4.76420        0.41952
H         -0.03457        3.51322        0.20866
H         -1.51214        3.72659       -1.70156
H         -1.70571        2.13276       -1.03067
H         -3.59877        4.49479       -0.54115
H         -3.86983        3.16344       -1.67677
H         -3.85180        2.84355        0.05862
H         -1.18663        0.66718        0.33233
H         -1.72877       -0.26218        1.75386
H         -2.77490        1.02194        1.11739
