 xtb: 6.7.1 (edcfbbe)
          12202407113D

 52 53  0     0  0            999 V2000
   -0.8704   -0.0286   -0.6902 C   0  0  0  0  0  0  0  0  0  0  0  0
   -0.3179   -1.4488   -0.7190 C   0  0  0  0  0  0  0  0  0  0  0  0
    0.6857   -1.7314    0.4002 C   0  0  0  0  0  0  0  0  0  0  0  0
    0.1363   -1.5787    1.8215 C   0  0  0  0  0  0  0  0  0  0  0  0
   -1.0404   -2.4988    2.1575 C   0  0  0  0  0  0  0  0  0  0  0  0
   -0.7009   -3.9897    2.1685 C   0  0  0  0  0  0  0  0  0  0  0  0
    0.1735   -4.4186    3.3530 C   0  0  0  0  0  0  0  0  0  0  0  0
   -0.5510   -4.3330    4.6023 N   0  0  0  0  0  0  0  0  0  0  0  0
   -1.5547   -5.2064    4.9665 C   0  0  0  0  0  0  0  0  0  0  0  0
   -2.0571   -6.3474    4.3551 C   0  0  0  0  0  0  0  0  0  0  0  0
   -3.0812   -7.0163    5.0021 C   0  0  0  0  0  0  0  0  0  0  0  0
   -3.7375   -8.4308    4.2939 Cl  0  0  0  0  0  0  0  0  0  0  0  0
   -3.5942   -6.5536    6.2359 C   0  0  0  0  0  0  0  0  0  0  0  0
   -3.0862   -5.4223    6.8497 C   0  0  0  0  0  0  0  0  0  0  0  0
   -2.0573   -4.7545    6.1984 C   0  0  0  0  0  0  0  0  0  0  0  0
   -1.3301   -3.6287    6.5319 N   0  0  0  0  0  0  0  0  0  0  0  0
   -0.4368   -3.4011    5.5573 C   0  0  0  0  0  0  0  0  0  0  0  0
    0.5631   -2.3129    5.5483 C   0  0  0  0  0  0  0  0  0  0  0  0
   -1.5276   -2.8382    7.7282 C   0  0  0  0  0  0  0  0  0  0  0  0
   -2.3625   -1.5801    7.4612 C   0  0  0  0  0  0  0  0  0  0  0  0
   -3.8487   -1.8803    7.2280 C   0  0  0  0  0  0  0  0  0  0  0  0
   -4.5007   -2.4156    8.4874 C   0  0  0  0  0  0  0  0  0  0  0  0
   -4.1821   -3.4451    9.0285 O   0  0  0  0  0  0  0  0  0  0  0  0
   -5.4507   -1.6159    8.9352 O   0  0  0  0  0  0  0  0  0  0  0  0
   -4.8688   -7.4133    6.9903 Cl  0  0  0  0  0  0  0  0  0  0  0  0
   -1.4946    0.1388    0.1844 H   0  0  0  0  0  0  0  0  0  0  0  0
   -1.4771    0.1535   -1.5734 H   0  0  0  0  0  0  0  0  0  0  0  0
   -0.0587    0.6952   -0.6805 H   0  0  0  0  0  0  0  0  0  0  0  0
   -1.1417   -2.1640   -0.6775 H   0  0  0  0  0  0  0  0  0  0  0  0
    0.1948   -1.6058   -1.6699 H   0  0  0  0  0  0  0  0  0  0  0  0
    1.0864   -2.7388    0.2671 H   0  0  0  0  0  0  0  0  0  0  0  0
    1.5229   -1.0381    0.2947 H   0  0  0  0  0  0  0  0  0  0  0  0
    0.9624   -1.7522    2.5165 H   0  0  0  0  0  0  0  0  0  0  0  0
   -0.1891   -0.5468    1.9605 H   0  0  0  0  0  0  0  0  0  0  0  0
   -1.4590   -2.2158    3.1285 H   0  0  0  0  0  0  0  0  0  0  0  0
   -1.8259   -2.3373    1.4201 H   0  0  0  0  0  0  0  0  0  0  0  0
   -1.6286   -4.5636    2.1907 H   0  0  0  0  0  0  0  0  0  0  0  0
   -0.1738   -4.2487    1.2515 H   0  0  0  0  0  0  0  0  0  0  0  0
    0.4845   -5.4577    3.2218 H   0  0  0  0  0  0  0  0  0  0  0  0
    1.0645   -3.7949    3.4120 H   0  0  0  0  0  0  0  0  0  0  0  0
   -1.6753   -6.7191    3.4195 H   0  0  0  0  0  0  0  0  0  0  0  0
   -3.4929   -5.0830    7.7900 H   0  0  0  0  0  0  0  0  0  0  0  0
    0.5618   -1.7708    6.4881 H   0  0  0  0  0  0  0  0  0  0  0  0
    1.5611   -2.7204    5.3874 H   0  0  0  0  0  0  0  0  0  0  0  0
    0.3607   -1.6047    4.7449 H   0  0  0  0  0  0  0  0  0  0  0  0
   -2.0398   -3.4639    8.4608 H   0  0  0  0  0  0  0  0  0  0  0  0
   -0.5533   -2.5606    8.1357 H   0  0  0  0  0  0  0  0  0  0  0  0
   -2.2647   -0.9197    8.3236 H   0  0  0  0  0  0  0  0  0  0  0  0
   -1.9704   -1.0509    6.5907 H   0  0  0  0  0  0  0  0  0  0  0  0
   -4.3686   -0.9687    6.9370 H   0  0  0  0  0  0  0  0  0  0  0  0
   -3.9655   -2.6250    6.4381 H   0  0  0  0  0  0  0  0  0  0  0  0
   -5.8690   -1.9578    9.7434 H   0  0  0  0  0  0  0  0  0  0  0  0
  1  2  1  0  0  0  0
  2  3  1  0  0  0  0
  3  4  1  0  0  0  0
  4  5  1  0  0  0  0
  5  6  1  0  0  0  0
  6  7  1  0  0  0  0
  7  8  1  0  0  0  0
  8  9  1  0  0  0  0
  9 10  4  0  0  0  0
 10 11  4  0  0  0  0
 11 12  1  0  0  0  0
 11 13  4  0  0  0  0
 13 14  4  0  0  0  0
  9 15  4  0  0  0  0
 14 15  4  0  0  0  0
 15 16  1  0  0  0  0
  8 17  4  0  0  0  0
 16 17  4  0  0  0  0
 17 18  1  0  0  0  0
 16 19  1  0  0  0  0
 19 20  1  0  0  0  0
 20 21  1  0  0  0  0
 21 22  1  0  0  0  0
 22 23  2  0  0  0  0
 22 24  1  0  0  0  0
 13 25  1  0  0  0  0
  1 26  1  0  0  0  0
  1 27  1  0  0  0  0
  1 28  1  0  0  0  0
  2 29  1  0  0  0  0
  2 30  1  0  0  0  0
  3 31  1  0  0  0  0
  3 32  1  0  0  0  0
  4 33  1  0  0  0  0
  4 34  1  0  0  0  0
  5 35  1  0  0  0  0
  5 36  1  0  0  0  0
  6 37  1  0  0  0  0
  6 38  1  0  0  0  0
  7 39  1  0  0  0  0
  7 40  1  0  0  0  0
 10 41  1  0  0  0  0
 14 42  1  0  0  0  0
 18 43  1  0  0  0  0
 18 44  1  0  0  0  0
 18 45  1  0  0  0  0
 19 46  1  0  0  0  0
 19 47  1  0  0  0  0
 20 48  1  0  0  0  0
 20 49  1  0  0  0  0
 21 50  1  0  0  0  0
 21 51  1  0  0  0  0
 24 52  1  0  0  0  0
M  CHG  1   1   1
M  END
