 xtb: 6.7.1 (edcfbbe)
          12202407113D

 26 26  0     0  0            999 V2000
    0.5165    0.7217    2.0567 C   0  0  0  0  0  0  0  0  0  0  0  0
    0.7683   -0.6540    2.2713 O   0  0  0  0  0  0  0  0  0  0  0  0
    1.4696   -1.3070    1.2576 C   0  0  0  0  0  0  0  0  0  0  0  0
    0.4745   -1.8161    0.1876 C   0  0  0  0  0  0  0  0  0  0  0  0
    1.0660   -2.3549   -1.0686 N   0  0  0  0  0  0  0  0  0  0  0  0
    2.0918   -3.3685   -0.7907 C   0  0  0  0  0  0  0  0  0  0  0  0
    1.5909   -1.2130   -1.9130 C   0  0  0  0  0  0  0  0  0  0  0  0
    0.4593   -0.6379   -2.4276 O   0  0  0  0  0  0  0  0  0  0  0  0
   -0.3306   -1.7096   -2.9131 C   0  0  0  0  0  0  0  0  0  0  0  0
   -0.0281   -2.8767   -1.9453 C   0  0  0  0  0  0  0  0  0  0  0  0
    0.0236    1.0743    2.9586 H   0  0  0  0  0  0  0  0  0  0  0  0
   -0.1400    0.8965    1.1986 H   0  0  0  0  0  0  0  0  0  0  0  0
    1.4512    1.2737    1.9159 H   0  0  0  0  0  0  0  0  0  0  0  0
    2.2283   -0.6429    0.8188 H   0  0  0  0  0  0  0  0  0  0  0  0
    1.9698   -2.1494    1.7441 H   0  0  0  0  0  0  0  0  0  0  0  0
   -0.1295   -2.5970    0.6537 H   0  0  0  0  0  0  0  0  0  0  0  0
   -0.1833   -0.9891   -0.0933 H   0  0  0  0  0  0  0  0  0  0  0  0
    2.9285   -2.9189   -0.2610 H   0  0  0  0  0  0  0  0  0  0  0  0
    1.6694   -4.1635   -0.1786 H   0  0  0  0  0  0  0  0  0  0  0  0
    2.4608   -3.7970   -1.7215 H   0  0  0  0  0  0  0  0  0  0  0  0
    2.2433   -1.6468   -2.6863 H   0  0  0  0  0  0  0  0  0  0  0  0
    2.1391   -0.4783   -1.3233 H   0  0  0  0  0  0  0  0  0  0  0  0
   -1.3709   -1.3866   -2.9010 H   0  0  0  0  0  0  0  0  0  0  0  0
   -0.0442   -1.9615   -3.9400 H   0  0  0  0  0  0  0  0  0  0  0  0
   -0.8954   -3.1519   -1.3485 H   0  0  0  0  0  0  0  0  0  0  0  0
    0.3201   -3.7572   -2.4843 H   0  0  0  0  0  0  0  0  0  0  0  0
  1  2  1  0  0  0  0
  2  3  1  0  0  0  0
  3  4  1  0  0  0  0
  4  5  1  0  0  0  0
  5  6  1  0  0  0  0
  5  7  1  0  0  0  0
  7  8  1  0  0  0  0
  8  9  1  0  0  0  0
  5 10  1  0  0  0  0
  9 10  1  0  0  0  0
  1 11  1  0  0  0  0
  1 12  1  0  0  0  0
  1 13  1  0  0  0  0
  3 14  1  0  0  0  0
  3 15  1  0  0  0  0
  4 16  1  0  0  0  0
  4 17  1  0  0  0  0
  6 18  1  0  0  0  0
  6 19  1  0  0  0  0
  6 20  1  0  0  0  0
  7 21  1  0  0  0  0
  7 22  1  0  0  0  0
  9 23  1  0  0  0  0
  9 24  1  0  0  0  0
 10 25  1  0  0  0  0
 10 26  1  0  0  0  0
M  CHG  1   1   1
M  END
