59

O          1.44767        0.22435       -0.54093
C          2.67149        0.22246       -0.41416
C          3.31143       -0.65810        0.59559
C          4.50871       -0.30694        1.22867
C          5.10652       -1.20058        2.12033
C          4.51238       -2.43566        2.38101
C          3.30899       -2.77750        1.76626
C          2.70289       -1.88759        0.87943
C          3.57336        1.00856       -1.35929
N          3.13162        0.81269       -2.75527
C          2.98693       -0.41915       -3.38623
C          2.41935       -0.18115       -4.60439
N          2.25948        1.18457       -4.69214
C          2.67419        1.78362       -3.56715
C          1.68524        1.86872       -5.76469
C          2.24546        3.02848       -6.28789
N          3.44944        3.57697       -5.90992
C          3.99198        4.78627       -6.41482
C          5.25070        4.77267       -7.03399
C          5.78309        5.93603       -7.59526
C          5.06403        7.12718       -7.54340
C          3.81410        7.15634       -6.92990
C          3.28014        5.99197       -6.37155
S          1.28360        3.59203       -7.59160
C          0.15073        2.31109       -7.47253
C          0.47913        1.44914       -6.43741
C         -0.34366        0.30018       -6.08586
C         -0.36625       -0.83552       -6.90484
C         -1.12557       -1.94560       -6.53197
C         -1.85982       -1.92541       -5.34606
C         -1.83871       -0.79698       -4.52804
C         -1.08038        0.31472       -4.89384
C         -0.94640        2.32002       -8.43977
O         -0.79449        2.68288       -9.60608
C         -2.31074        1.85805       -7.99121
H          4.98743        0.65445        1.06621
H          6.03558       -0.93601        2.62227
H          4.98223       -3.12960        3.07597
H          2.84270       -3.73681        1.98257
H          1.76079       -2.16480        0.40932
H          3.51519        2.07043       -1.10173
H          4.61462        0.67965       -1.30668
H          3.29078       -1.31709       -2.87497
H          2.14087       -0.82520       -5.41996
H          2.61881        2.84185       -3.33226
H          4.19908        2.90595       -5.74821
H          5.82344        3.85276       -7.11434
H          6.75278        5.91073       -8.08704
H          5.47323        8.03080       -7.98957
H          3.24960        8.08521       -6.89559
H          2.30217        6.04151       -5.90062
H          0.19731       -0.86974       -7.83554
H         -1.15431       -2.82710       -7.16962
H         -2.45895       -2.78892       -5.06284
H         -2.42027       -0.78278       -3.60818
H         -1.08144        1.18745       -4.24392
H         -2.40839        0.78027       -8.13497
H         -2.49439        2.12853       -6.94874
H         -3.07158        2.35874       -8.59849
