 xtb: 6.7.1 (edcfbbe)
          12202407123D

 59 63  0     0  0            999 V2000
    2.0214    0.5445   -1.6354 O   0  0  0  0  0  0  0  0  0  0  0  0
    3.0326    0.0205   -1.2295 C   0  0  0  0  0  0  0  0  0  0  0  0
    3.2702   -0.3702    0.1558 C   0  0  0  0  0  0  0  0  0  0  0  0
    4.5058   -0.8246    0.6307 C   0  0  0  0  0  0  0  0  0  0  0  0
    4.6479   -1.1676    1.9604 C   0  0  0  0  0  0  0  0  0  0  0  0
    3.5706   -1.0720    2.8303 C   0  0  0  0  0  0  0  0  0  0  0  0
    2.3423   -0.6192    2.3710 C   0  0  0  0  0  0  0  0  0  0  0  0
    2.1924   -0.2671    1.0456 C   0  0  0  0  0  0  0  0  0  0  0  0
    4.1768   -0.2543   -2.2522 C   0  0  0  0  0  0  0  0  0  0  0  0
    3.6376   -0.0754   -3.5667 N   0  0  0  0  0  0  0  0  0  0  0  0
    3.3226   -1.0587   -4.4570 C   0  0  0  0  0  0  0  0  0  0  0  0
    2.5950   -0.4888   -5.4543 C   0  0  0  0  0  0  0  0  0  0  0  0
    2.4578    0.8372   -5.1516 N   0  0  0  0  0  0  0  0  0  0  0  0
    3.0862    1.0627   -3.9976 C   0  0  0  0  0  0  0  0  0  0  0  0
    1.7022    1.7690   -5.8877 C   0  0  0  0  0  0  0  0  0  0  0  0
    2.1578    3.0348   -6.2460 C   0  0  0  0  0  0  0  0  0  0  0  0
    3.4134    3.4930   -6.0089 N   0  0  0  0  0  0  0  0  0  0  0  0
    3.9752    4.7343   -6.3464 C   0  0  0  0  0  0  0  0  0  0  0  0
    5.3562    4.7863   -6.5245 C   0  0  0  0  0  0  0  0  0  0  0  0
    5.9736    5.9828   -6.8328 C   0  0  0  0  0  0  0  0  0  0  0  0
    5.2224    7.1397   -6.9610 C   0  0  0  0  0  0  0  0  0  0  0  0
    3.8530    7.0921   -6.7648 C   0  0  0  0  0  0  0  0  0  0  0  0
    3.2250    5.8991   -6.4531 C   0  0  0  0  0  0  0  0  0  0  0  0
    0.9404    3.8936   -7.1206 S   0  0  0  0  0  0  0  0  0  0  0  0
   -0.1733    2.5506   -6.9775 C   0  0  0  0  0  0  0  0  0  0  0  0
    0.3763    1.4868   -6.3105 C   0  0  0  0  0  0  0  0  0  0  0  0
   -0.2735    0.2026   -6.0052 C   0  0  0  0  0  0  0  0  0  0  0  0
   -0.6631   -0.6552   -7.0296 C   0  0  0  0  0  0  0  0  0  0  0  0
   -1.2447   -1.8738   -6.7307 C   0  0  0  0  0  0  0  0  0  0  0  0
   -1.4401   -2.2461   -5.4105 C   0  0  0  0  0  0  0  0  0  0  0  0
   -1.0461   -1.3994   -4.3877 C   0  0  0  0  0  0  0  0  0  0  0  0
   -0.4584   -0.1817   -4.6795 C   0  0  0  0  0  0  0  0  0  0  0  0
   -1.4903    2.8835   -7.5175 C   0  0  0  0  0  0  0  0  0  0  0  0
   -1.6137    3.9505   -8.0817 O   0  0  0  0  0  0  0  0  0  0  0  0
   -2.6225    1.9170   -7.3235 C   0  0  0  0  0  0  0  0  0  0  0  0
    5.3613   -0.8982   -0.0233 H   0  0  0  0  0  0  0  0  0  0  0  0
    5.6038   -1.5129    2.3239 H   0  0  0  0  0  0  0  0  0  0  0  0
    3.6915   -1.3465    3.8667 H   0  0  0  0  0  0  0  0  0  0  0  0
    1.5054   -0.5408    3.0474 H   0  0  0  0  0  0  0  0  0  0  0  0
    1.2451    0.0886    0.6687 H   0  0  0  0  0  0  0  0  0  0  0  0
    4.9819    0.4617   -2.0628 H   0  0  0  0  0  0  0  0  0  0  0  0
    4.5558   -1.2709   -2.1499 H   0  0  0  0  0  0  0  0  0  0  0  0
    3.6355   -2.0741   -4.3274 H   0  0  0  0  0  0  0  0  0  0  0  0
    2.1723   -0.9213   -6.3370 H   0  0  0  0  0  0  0  0  0  0  0  0
    3.1347    2.0091   -3.4966 H   0  0  0  0  0  0  0  0  0  0  0  0
    4.1060    2.7850   -5.7968 H   0  0  0  0  0  0  0  0  0  0  0  0
    5.9443    3.8834   -6.4277 H   0  0  0  0  0  0  0  0  0  0  0  0
    7.0427    6.0102   -6.9752 H   0  0  0  0  0  0  0  0  0  0  0  0
    5.7036    8.0729   -7.2064 H   0  0  0  0  0  0  0  0  0  0  0  0
    3.2626    7.9907   -6.8497 H   0  0  0  0  0  0  0  0  0  0  0  0
    2.1623    5.8880   -6.2779 H   0  0  0  0  0  0  0  0  0  0  0  0
   -0.4984   -0.3648   -8.0570 H   0  0  0  0  0  0  0  0  0  0  0  0
   -1.5475   -2.5331   -7.5296 H   0  0  0  0  0  0  0  0  0  0  0  0
   -1.9007   -3.1940   -5.1799 H   0  0  0  0  0  0  0  0  0  0  0  0
   -1.1988   -1.6846   -3.3580 H   0  0  0  0  0  0  0  0  0  0  0  0
   -0.1617    0.4818   -3.8795 H   0  0  0  0  0  0  0  0  0  0  0  0
   -2.5327    1.1022   -8.0388 H   0  0  0  0  0  0  0  0  0  0  0  0
   -2.6134    1.4961   -6.3219 H   0  0  0  0  0  0  0  0  0  0  0  0
   -3.5607    2.4340   -7.5069 H   0  0  0  0  0  0  0  0  0  0  0  0
  1  2  2  0  0  0  0
  2  3  1  0  0  0  0
  3  4  4  0  0  0  0
  4  5  4  0  0  0  0
  5  6  4  0  0  0  0
  6  7  4  0  0  0  0
  3  8  4  0  0  0  0
  7  8  4  0  0  0  0
  2  9  1  0  0  0  0
  9 10  1  0  0  0  0
 10 11  4  0  0  0  0
 11 12  2  0  0  0  0
 12 13  4  0  0  0  0
 10 14  4  0  0  0  0
 13 14  4  0  0  0  0
 13 15  1  0  0  0  0
 15 16  4  0  0  0  0
 16 17  4  0  0  0  0
 17 18  1  0  0  0  0
 18 19  4  0  0  0  0
 19 20  4  0  0  0  0
 20 21  4  0  0  0  0
 21 22  4  0  0  0  0
 18 23  4  0  0  0  0
 22 23  4  0  0  0  0
 16 24  1  0  0  0  0
 24 25  1  0  0  0  0
 15 26  4  0  0  0  0
 25 26  4  0  0  0  0
 26 27  1  0  0  0  0
 27 28  4  0  0  0  0
 28 29  4  0  0  0  0
 29 30  4  0  0  0  0
 30 31  4  0  0  0  0
 27 32  4  0  0  0  0
 31 32  4  0  0  0  0
 25 33  1  0  0  0  0
 33 34  2  0  0  0  0
 33 35  1  0  0  0  0
  4 36  1  0  0  0  0
  5 37  1  0  0  0  0
  6 38  1  0  0  0  0
  7 39  1  0  0  0  0
  8 40  1  0  0  0  0
  9 41  1  0  0  0  0
  9 42  1  0  0  0  0
 11 43  1  0  0  0  0
 12 44  1  0  0  0  0
 14 45  1  0  0  0  0
 17 46  1  0  0  0  0
 19 47  1  0  0  0  0
 20 48  1  0  0  0  0
 21 49  1  0  0  0  0
 22 50  1  0  0  0  0
 23 51  1  0  0  0  0
 28 52  1  0  0  0  0
 29 53  1  0  0  0  0
 30 54  1  0  0  0  0
 31 55  1  0  0  0  0
 32 56  1  0  0  0  0
 35 57  1  0  0  0  0
 35 58  1  0  0  0  0
 35 59  1  0  0  0  0
M  CHG  1   1   1
M  END
