32

C          1.21332        0.51185        0.30723
C          0.23042        0.98558       -0.74646
N          0.89660        1.31135       -2.02066
C          1.35361        0.37007       -2.99437
C          1.37261       -1.09146       -2.84818
C          1.78725        1.08197       -4.17126
C          1.56404        2.47407       -3.86225
N          1.02431        2.57406       -2.54047
C          0.64930        3.80589       -1.85248
C          1.21568        4.08438       -0.61359
C          0.86726        5.27139        0.02886
C         -0.03143        6.15479       -0.57597
C         -0.58018        5.86098       -1.82752
C         -0.23457        4.67835       -2.47964
C          1.90462        3.58992       -4.75585
H          1.69709       -0.42123        0.00468
H          0.69683        0.33126        1.25480
H          2.00272        1.24780        0.47905
H         -0.50809        0.20134       -0.94762
H         -0.33441        1.84825       -0.38580
H          2.19839       -1.38404       -2.19461
H          0.43102       -1.44146       -2.41812
H          1.50692       -1.57602       -3.81966
H          2.19288        0.66563       -5.08321
H          1.94731        3.42368       -0.16509
H          1.30211        5.52215        0.99502
H         -0.30036        7.08267       -0.07189
H         -1.27841        6.55836       -2.28772
H         -0.67774        4.44438       -3.44141
H          1.00101        3.95960       -5.24729
H          2.36749        4.40164       -4.18846
H          2.61176        3.26533       -5.52491
