 xtb: 6.7.1 (edcfbbe)
          12202407123D

 35 35  0     0  0            999 V2000
    1.9536   -0.5548    1.2319 C   0  0  0  0  0  0  0  0  0  0  0  0
    0.9668    0.1693    0.3684 C   0  0  0  0  0  0  0  0  0  0  0  0
    0.2094   -0.4607   -0.5190 C   0  0  0  0  0  0  0  0  0  0  0  0
    0.9730    1.6781    0.4716 C   0  0  0  0  0  0  0  0  0  0  0  0
   -0.0756    2.2713    1.3768 N   0  0  0  0  0  0  0  0  0  0  0  0
    0.1397    3.7400    1.4167 C   0  0  0  0  0  0  0  0  0  0  0  0
   -0.8293    4.6272    0.9626 C   0  0  0  0  0  0  0  0  0  0  0  0
   -0.6474    6.0029    0.9996 C   0  0  0  0  0  0  0  0  0  0  0  0
   -1.7066    6.9328    0.5062 C   0  0  0  0  0  0  0  0  0  0  0  0
    0.5466    6.4989    1.5101 C   0  0  0  0  0  0  0  0  0  0  0  0
    1.5194    5.6362    1.9631 C   0  0  0  0  0  0  0  0  0  0  0  0
    1.3384    4.2572    1.9252 C   0  0  0  0  0  0  0  0  0  0  0  0
    2.3207    3.4252    2.3754 O   0  0  0  0  0  0  0  0  0  0  0  0
    0.0262    1.7404    2.7522 C   0  0  0  0  0  0  0  0  0  0  0  0
   -1.4072    1.9029    0.8665 C   0  0  0  0  0  0  0  0  0  0  0  0
    1.8025   -1.6283    1.1691 H   0  0  0  0  0  0  0  0  0  0  0  0
    1.8984   -0.2529    2.2751 H   0  0  0  0  0  0  0  0  0  0  0  0
    2.9634   -0.3368    0.8831 H   0  0  0  0  0  0  0  0  0  0  0  0
   -0.4476    0.0536   -1.1999 H   0  0  0  0  0  0  0  0  0  0  0  0
    0.2382   -1.5313   -0.6172 H   0  0  0  0  0  0  0  0  0  0  0  0
    1.9447    1.9963    0.8481 H   0  0  0  0  0  0  0  0  0  0  0  0
    0.8125    2.1222   -0.5137 H   0  0  0  0  0  0  0  0  0  0  0  0
   -1.7635    4.2712    0.5650 H   0  0  0  0  0  0  0  0  0  0  0  0
   -2.0326    7.5907    1.3098 H   0  0  0  0  0  0  0  0  0  0  0  0
   -1.3131    7.5617   -0.2903 H   0  0  0  0  0  0  0  0  0  0  0  0
   -2.5694    6.3923    0.1284 H   0  0  0  0  0  0  0  0  0  0  0  0
    0.7131    7.5634    1.5512 H   0  0  0  0  0  0  0  0  0  0  0  0
    2.4468    6.0256    2.3579 H   0  0  0  0  0  0  0  0  0  0  0  0
    3.0727    3.9438    2.6900 H   0  0  0  0  0  0  0  0  0  0  0  0
   -0.6884    2.2590    3.3897 H   0  0  0  0  0  0  0  0  0  0  0  0
   -0.2009    0.6768    2.7538 H   0  0  0  0  0  0  0  0  0  0  0  0
    1.0277    1.9003    3.1427 H   0  0  0  0  0  0  0  0  0  0  0  0
   -1.5388    2.2566   -0.1537 H   0  0  0  0  0  0  0  0  0  0  0  0
   -1.4916    0.8174    0.8683 H   0  0  0  0  0  0  0  0  0  0  0  0
   -2.1846    2.3155    1.5062 H   0  0  0  0  0  0  0  0  0  0  0  0
  1  2  1  0  0  0  0
  2  3  2  0  0  0  0
  2  4  1  0  0  0  0
  4  5  1  0  0  0  0
  5  6  1  0  0  0  0
  6  7  4  0  0  0  0
  7  8  4  0  0  0  0
  8  9  1  0  0  0  0
  8 10  4  0  0  0  0
 10 11  4  0  0  0  0
  6 12  4  0  0  0  0
 11 12  4  0  0  0  0
 12 13  1  0  0  0  0
  5 14  1  0  0  0  0
  5 15  1  0  0  0  0
  1 16  1  0  0  0  0
  1 17  1  0  0  0  0
  1 18  1  0  0  0  0
  3 19  1  0  0  0  0
  3 20  1  0  0  0  0
  4 21  1  0  0  0  0
  4 22  1  0  0  0  0
  7 23  1  0  0  0  0
  9 24  1  0  0  0  0
  9 25  1  0  0  0  0
  9 26  1  0  0  0  0
 10 27  1  0  0  0  0
 11 28  1  0  0  0  0
 13 29  1  0  0  0  0
 14 30  1  0  0  0  0
 14 31  1  0  0  0  0
 14 32  1  0  0  0  0
 15 33  1  0  0  0  0
 15 34  1  0  0  0  0
 15 35  1  0  0  0  0
M  CHG  1   1   1
M  END
