 xtb: 6.7.1 (edcfbbe)
          12202407123D

 18 18  0     0  0            999 V2000
    0.8180    0.0459   -0.0795 C   0  0  0  0  0  0  0  0  0  0  0  0
   -0.3778    0.0528   -0.0691 C   0  0  0  0  0  0  0  0  0  0  0  0
   -1.8319    0.0518   -0.0779 C   0  0  0  0  0  0  0  0  0  0  0  0
   -2.3350   -0.3564   -1.3778 N   0  0  0  0  0  0  0  0  0  0  0  0
   -2.8776    0.4579   -2.3211 C   0  0  0  0  0  0  0  0  0  0  0  0
   -3.1676   -0.3176   -3.4041 C   0  0  0  0  0  0  0  0  0  0  0  0
   -2.7913   -1.5900   -3.1048 N   0  0  0  0  0  0  0  0  0  0  0  0
   -2.2880   -1.5904   -1.8730 C   0  0  0  0  0  0  0  0  0  0  0  0
   -2.9223   -2.7376   -3.9635 C   0  0  0  0  0  0  0  0  0  0  0  0
    1.8682    0.0504   -0.0628 H   0  0  0  0  0  0  0  0  0  0  0  0
   -2.2002   -0.6388    0.6880 H   0  0  0  0  0  0  0  0  0  0  0  0
   -2.2022    1.0568    0.1418 H   0  0  0  0  0  0  0  0  0  0  0  0
   -3.0207    1.5085   -2.1697 H   0  0  0  0  0  0  0  0  0  0  0  0
   -3.6071   -0.0482   -4.3428 H   0  0  0  0  0  0  0  0  0  0  0  0
   -1.8997   -2.4489   -1.3591 H   0  0  0  0  0  0  0  0  0  0  0  0
   -1.9550   -3.2210   -4.1006 H   0  0  0  0  0  0  0  0  0  0  0  0
   -3.6145   -3.4604   -3.5297 H   0  0  0  0  0  0  0  0  0  0  0  0
   -3.3024   -2.4239   -4.9329 H   0  0  0  0  0  0  0  0  0  0  0  0
  1  2  3  0  0  0  0
  2  3  1  0  0  0  0
  3  4  1  0  0  0  0
  4  5  4  0  0  0  0
  5  6  2  0  0  0  0
  6  7  4  0  0  0  0
  4  8  4  0  0  0  0
  7  8  4  0  0  0  0
  7  9  1  0  0  0  0
  1 10  1  0  0  0  0
  3 11  1  0  0  0  0
  3 12  1  0  0  0  0
  5 13  1  0  0  0  0
  6 14  1  0  0  0  0
  8 15  1  0  0  0  0
  9 16  1  0  0  0  0
  9 17  1  0  0  0  0
  9 18  1  0  0  0  0
M  CHG  1   1   1
M  END
