18

C          0.94142        0.04645       -0.06641
C         -0.36244        0.04645       -0.06641
C         -1.88244        0.04645       -0.06641
N         -2.36343       -0.34414       -1.38820
C         -2.91060        0.49408       -2.34488
C         -3.19898       -0.28420       -3.43054
N         -2.81349       -1.57552       -3.11003
C         -2.29607       -1.59237       -1.87210
C         -2.92223       -2.74806       -3.96850
H          2.00882        0.05572       -0.05867
H         -2.26090       -0.66947        0.67022
H         -2.25950        1.04259        0.18554
H         -3.02141        1.54332       -2.13011
H         -3.62684       -0.08419       -4.39810
H         -1.89596       -2.45956       -1.35823
H         -1.93285       -3.19990       -4.07903
H         -3.60667       -3.46276       -3.50399
H         -3.30360       -2.46383       -4.95272
