22

C         -2.44740        0.63765       -0.45670
C         -2.50040       -0.66374        0.32084
C         -1.27340       -1.51267        0.00968
C         -0.00275       -0.70600        0.00730
C         -0.01083        0.69276       -0.05019
N         -1.26865        1.42982       -0.00821
C          1.17879        1.42194       -0.08940
C          2.39851        0.74634       -0.09112
C          2.42341       -0.64665       -0.04950
C          1.23073       -1.37042       -0.00372
H         -2.35609        0.48018       -1.53748
H         -3.33004        1.25398       -0.26058
H         -2.54357       -0.45112        1.39695
H         -3.40895       -1.22170        0.06869
H         -1.20408       -2.32471        0.74298
H         -1.39044       -1.96782       -0.98185
H         -1.17610        2.26802       -0.59542
H         -1.39792        1.75110        0.96072
H          1.18716        2.50832       -0.11444
H          3.33518        1.30115       -0.12344
H          3.37746       -1.17301       -0.05416
H          1.27524       -2.45924        0.02126
