 xtb: 6.7.1 (edcfbbe)
          12202407123D

 39 39  0     0  0            999 V2000
    1.6829   -0.6613    0.4166 C   0  0  0  0  0  0  0  0  0  0  0  0
    0.7239   -0.6703    1.6008 C   0  0  0  0  0  0  0  0  0  0  0  0
    0.7620    0.6257    2.4143 C   0  0  0  0  0  0  0  0  0  0  0  0
    0.1501    1.8105    1.6836 C   0  0  0  0  0  0  0  0  0  0  0  0
   -1.2587    1.5590    1.5066 O   0  0  0  0  0  0  0  0  0  0  0  0
   -1.9340    2.4432    0.8015 C   0  0  0  0  0  0  0  0  0  0  0  0
   -1.4990    3.4418    0.2995 O   0  0  0  0  0  0  0  0  0  0  0  0
   -3.3912    2.0569    0.6770 C   0  0  0  0  0  0  0  0  0  0  0  0
   -4.2670    2.9234    0.0231 C   0  0  0  0  0  0  0  0  0  0  0  0
   -5.5987    2.5572   -0.0971 C   0  0  0  0  0  0  0  0  0  0  0  0
   -6.0167    1.3498    0.4284 C   0  0  0  0  0  0  0  0  0  0  0  0
   -5.1614    0.5283    1.0486 N   0  0  0  0  0  0  0  0  0  0  0  0
   -3.8747    0.8644    1.1825 C   0  0  0  0  0  0  0  0  0  0  0  0
   -5.6383   -0.6991    1.6591 C   0  0  0  0  0  0  0  0  0  0  0  0
   -5.9214   -0.4828    3.1538 C   0  0  0  0  0  0  0  0  0  0  0  0
   -7.0866    0.4665    3.4321 C   0  0  0  0  0  0  0  0  0  0  0  0
   -8.4414   -0.1108    3.0388 C   0  0  0  0  0  0  0  0  0  0  0  0
    1.4113    0.0974   -0.3131 H   0  0  0  0  0  0  0  0  0  0  0  0
    1.6692   -1.6266   -0.0828 H   0  0  0  0  0  0  0  0  0  0  0  0
    2.6981   -0.4671    0.7524 H   0  0  0  0  0  0  0  0  0  0  0  0
   -0.2951   -0.8449    1.2473 H   0  0  0  0  0  0  0  0  0  0  0  0
    0.9906   -1.4958    2.2624 H   0  0  0  0  0  0  0  0  0  0  0  0
    0.2235    0.4839    3.3531 H   0  0  0  0  0  0  0  0  0  0  0  0
    1.7956    0.8768    2.6526 H   0  0  0  0  0  0  0  0  0  0  0  0
    0.2645    2.7347    2.2583 H   0  0  0  0  0  0  0  0  0  0  0  0
    0.6016    1.9635    0.6998 H   0  0  0  0  0  0  0  0  0  0  0  0
   -3.8852    3.8525   -0.3749 H   0  0  0  0  0  0  0  0  0  0  0  0
   -6.3093    3.1976   -0.5949 H   0  0  0  0  0  0  0  0  0  0  0  0
   -7.0437    1.0260    0.3453 H   0  0  0  0  0  0  0  0  0  0  0  0
   -3.2188    0.1751    1.6947 H   0  0  0  0  0  0  0  0  0  0  0  0
   -6.5464   -1.0248    1.1517 H   0  0  0  0  0  0  0  0  0  0  0  0
   -4.8749   -1.4703    1.5413 H   0  0  0  0  0  0  0  0  0  0  0  0
   -6.1458   -1.4576    3.5875 H   0  0  0  0  0  0  0  0  0  0  0  0
   -5.0173   -0.1038    3.6348 H   0  0  0  0  0  0  0  0  0  0  0  0
   -7.0981    0.6701    4.5034 H   0  0  0  0  0  0  0  0  0  0  0  0
   -6.9255    1.4244    2.9286 H   0  0  0  0  0  0  0  0  0  0  0  0
   -8.6169   -1.0500    3.5565 H   0  0  0  0  0  0  0  0  0  0  0  0
   -9.2325    0.5794    3.3172 H   0  0  0  0  0  0  0  0  0  0  0  0
   -8.5205   -0.2922    1.9690 H   0  0  0  0  0  0  0  0  0  0  0  0
  1  2  1  0  0  0  0
  2  3  1  0  0  0  0
  3  4  1  0  0  0  0
  4  5  1  0  0  0  0
  5  6  1  0  0  0  0
  6  7  2  0  0  0  0
  6  8  1  0  0  0  0
  8  9  4  0  0  0  0
  9 10  4  0  0  0  0
 10 11  4  0  0  0  0
 11 12  4  0  0  0  0
  8 13  4  0  0  0  0
 12 13  4  0  0  0  0
 12 14  1  0  0  0  0
 14 15  1  0  0  0  0
 15 16  1  0  0  0  0
 16 17  1  0  0  0  0
  1 18  1  0  0  0  0
  1 19  1  0  0  0  0
  1 20  1  0  0  0  0
  2 21  1  0  0  0  0
  2 22  1  0  0  0  0
  3 23  1  0  0  0  0
  3 24  1  0  0  0  0
  4 25  1  0  0  0  0
  4 26  1  0  0  0  0
  9 27  1  0  0  0  0
 10 28  1  0  0  0  0
 11 29  1  0  0  0  0
 13 30  1  0  0  0  0
 14 31  1  0  0  0  0
 14 32  1  0  0  0  0
 15 33  1  0  0  0  0
 15 34  1  0  0  0  0
 16 35  1  0  0  0  0
 16 36  1  0  0  0  0
 17 37  1  0  0  0  0
 17 38  1  0  0  0  0
 17 39  1  0  0  0  0
M  CHG  1   1   1
M  END
