57

C          0.02066       -1.10220       -0.63045
C          0.14302       -1.38264        0.86237
N          0.68102       -0.19454        1.70050
C         -0.23800        1.08283        1.49524
C         -1.59972        1.10112        2.19304
C         -1.67306        1.98969        3.45432
O         -1.07408        3.27664        3.22967
C          0.06876        3.47630        3.98586
C          0.11070        3.01608        5.67798
C          1.71282        2.92645        6.48126
C          3.36660        3.36678        5.39806
C          3.14931        3.85972        3.67969
C          1.51039        3.91143        3.03385
C          0.64129       -0.61129        3.21597
C          1.80617       -1.42358        3.77695
C          3.00032       -0.60594        4.30260
O          2.72899       -0.06895        5.59459
C          2.85800        1.28909        5.70098
C          3.62565        1.93438        7.14025
C          3.51555        3.64424        7.63108
C          2.60660        4.86143        6.73501
C          1.75668        4.34591        5.23594
C          1.91459        2.40816        4.67353
C          2.07805        0.28909        1.19817
C          3.09531       -0.78323        0.84088
H         -0.82620       -0.44562       -0.84994
H         -0.16752       -2.04119       -1.16180
H          0.91871       -0.65852       -1.06563
H         -0.84226       -1.64453        1.26224
H          0.81639       -2.22679        1.04137
H          0.37138        1.93158        1.79047
H         -0.37854        1.18990        0.41610
H         -2.30499        1.54150        1.47507
H         -1.97834        0.09797        2.40953
H         -2.72682        2.16289        3.70248
H         -1.24716        1.44586        4.30139
H         -0.78494        2.75677        6.23158
H          1.60114        2.62990        7.53777
H          4.43110        3.38155        5.68358
H          4.00773        4.13482        3.07563
H          1.36887        4.19750        1.99244
H          0.48725        0.28009        3.80906
H         -0.27458       -1.20436        3.32825
H          1.40832       -1.98342        4.63546
H          2.12278       -2.18774        3.06414
H          3.83308       -1.30511        4.44744
H          3.36162        0.14837        3.60306
H          4.14648        1.24371        7.80239
H          4.02308        3.94809        8.54681
H          2.55744        5.89250        7.06944
H          1.22514        5.19249        4.77205
H          1.51396        1.90652        3.80049
H          1.89938        0.88925        0.29755
H          2.46869        0.97591        1.95066
H          2.77520       -1.40042       -0.00142
H          4.02670       -0.29339        0.53332
H          3.36002       -1.44311        1.66266
