17

N          1.83122        1.06882        0.68718
N          2.81345        0.51567        0.50551
N          3.94773        0.01093        0.38038
C          4.13241       -0.77912       -0.85655
C          3.66486       -2.24225       -0.68645
N          2.21198       -2.37430       -0.46436
C          1.81392       -3.64946       -0.33782
N          0.58300       -3.74956       -0.83538
C          0.36554       -2.63982       -1.55775
N          1.43596       -1.82075       -1.45303
H          3.64374       -0.29046       -1.70905
H          5.20585       -0.78689       -1.07892
H          3.96584       -2.80034       -1.58451
H          4.20544       -2.67853        0.16505
H          1.97998       -1.95547        0.42510
H          2.33724       -4.45689        0.16404
H         -0.51006       -2.43571       -2.15380
