 xtb: 6.7.1 (edcfbbe)
          12202407123D

 17 18  0     0  0            999 V2000
    3.0636    2.0746    0.7025 N   0  0  0  0  0  0  0  0  0  0  0  0
    3.0937    1.0506    0.2648 N   0  0  0  0  0  0  0  0  0  0  0  0
    2.9113   -0.0569   -0.1637 N   0  0  0  0  0  0  0  0  0  0  0  0
    3.9156   -0.9093   -0.7573 C   0  0  0  0  0  0  0  0  0  0  0  0
    3.6904   -2.3535   -0.2906 C   0  0  0  0  0  0  0  0  0  0  0  0
    2.3995   -2.8321   -0.7216 N   0  0  0  0  0  0  0  0  0  0  0  0
    1.9885   -3.9992   -1.2206 C   0  0  0  0  0  0  0  0  0  0  0  0
    0.6868   -3.9799   -1.4357 N   0  0  0  0  0  0  0  0  0  0  0  0
    0.2776   -2.7827   -1.0679 C   0  0  0  0  0  0  0  0  0  0  0  0
    1.3037   -2.0601   -0.6172 N   0  0  0  0  0  0  0  0  0  0  0  0
    3.8363   -0.8527   -1.8503 H   0  0  0  0  0  0  0  0  0  0  0  0
    4.9255   -0.6016   -0.4702 H   0  0  0  0  0  0  0  0  0  0  0  0
    4.4601   -3.0070   -0.7036 H   0  0  0  0  0  0  0  0  0  0  0  0
    3.7383   -2.3993    0.8036 H   0  0  0  0  0  0  0  0  0  0  0  0
    1.4511   -1.0738   -0.3229 H   0  0  0  0  0  0  0  0  0  0  0  0
    2.6243   -4.8400   -1.4203 H   0  0  0  0  0  0  0  0  0  0  0  0
   -0.7382   -2.4412   -1.1194 H   0  0  0  0  0  0  0  0  0  0  0  0
  1  2  2  0  0  0  0
  1  3  1  0  0  0  0
  2  3  2  0  0  0  0
  3  4  1  0  0  0  0
  4  5  1  0  0  0  0
  5  6  1  0  0  0  0
  6  7  4  0  0  0  0
  7  8  4  0  0  0  0
  8  9  4  0  0  0  0
  6 10  1  0  0  0  0
  9 10  4  0  0  0  0
  4 11  1  0  0  0  0
  4 12  1  0  0  0  0
  5 13  1  0  0  0  0
  5 14  1  0  0  0  0
 10 15  1  0  0  0  0
  7 16  1  0  0  0  0
  9 17  1  0  0  0  0
M  CHG  1   1   1
M  END
