35

C          0.90050       -0.85474        0.39632
C          0.68545        0.55129       -0.09480
C          0.09542        0.78308       -1.28031
C          1.25466        1.66668        0.74855
N          0.36976        2.17860        1.91455
C          0.28687        3.71411        1.80803
C         -0.35161        4.24759        0.66653
C         -0.49185        5.62851        0.46899
C         -1.14561        6.16689       -0.77176
C          0.03034        6.50331        1.42068
C          0.66618        6.00809        2.55824
C          0.79506        4.62751        2.75493
O          1.43100        4.21350        3.89397
C          1.00473        1.71179        3.22100
C         -1.06748        1.65536        1.92503
H          0.47343       -1.59650       -0.28744
H          0.43478       -1.00420        1.37388
H          1.97099       -1.06445        0.48682
H         -0.02252        1.78392       -1.68803
H         -0.27277       -0.02963       -1.90440
H          2.21709        1.34942        1.17121
H          1.50875        2.51799        0.10420
H         -0.74788        3.58968       -0.10254
H         -1.81642        6.99570       -0.52325
H         -0.38307        6.51870       -1.47350
H         -1.74637        5.39829       -1.26948
H         -0.05437        7.58103        1.28097
H          1.05761        6.72213        3.27999
H          1.70145        4.99049        4.41923
H          0.39951        2.05500        4.06591
H          1.00669        0.61600        3.21881
H          2.04314        2.05299        3.27087
H         -1.54549        1.83347        0.95898
H         -1.05246        0.58274        2.13786
H         -1.61826        2.16957        2.72077
