 xtb: 6.7.1 (edcfbbe)
          12202407123D

 24 24  0     0  0            999 V2000
    0.9834   -0.0415    0.0429 C   0  0  0  0  0  0  0  0  0  0  0  0
    0.2697   -0.1921   -1.0555 C   0  0  0  0  0  0  0  0  0  0  0  0
   -1.2320   -0.0783   -1.0945 C   0  0  0  0  0  0  0  0  0  0  0  0
   -1.6402    0.9358   -2.0455 N   0  0  0  0  0  0  0  0  0  0  0  0
   -1.4047    2.2701   -1.9118 C   0  0  0  0  0  0  0  0  0  0  0  0
   -1.8957    2.8808   -3.0261 C   0  0  0  0  0  0  0  0  0  0  0  0
   -2.4219    1.9107   -3.8214 N   0  0  0  0  0  0  0  0  0  0  0  0
   -2.2504    0.7406   -3.2097 C   0  0  0  0  0  0  0  0  0  0  0  0
   -3.0348    2.0952   -5.1228 C   0  0  0  0  0  0  0  0  0  0  0  0
   -2.2822    1.3389   -6.1847 C   0  0  0  0  0  0  0  0  0  0  0  0
   -2.8473    0.4719   -7.0019 C   0  0  0  0  0  0  0  0  0  0  0  0
    0.5306    0.1779    0.9957 H   0  0  0  0  0  0  0  0  0  0  0  0
    2.0533   -0.1501    0.0373 H   0  0  0  0  0  0  0  0  0  0  0  0
    0.7377   -0.4218   -2.0024 H   0  0  0  0  0  0  0  0  0  0  0  0
   -1.6746   -1.0301   -1.3996 H   0  0  0  0  0  0  0  0  0  0  0  0
   -1.6128    0.1904   -0.1059 H   0  0  0  0  0  0  0  0  0  0  0  0
   -0.9135    2.6825   -1.0543 H   0  0  0  0  0  0  0  0  0  0  0  0
   -1.9056    3.9176   -3.2943 H   0  0  0  0  0  0  0  0  0  0  0  0
   -2.5620   -0.2082   -3.6019 H   0  0  0  0  0  0  0  0  0  0  0  0
   -4.0735    1.7553   -5.0839 H   0  0  0  0  0  0  0  0  0  0  0  0
   -3.0247    3.1652   -5.3463 H   0  0  0  0  0  0  0  0  0  0  0  0
   -1.2283    1.5699   -6.2527 H   0  0  0  0  0  0  0  0  0  0  0  0
   -2.2828   -0.0299   -7.7674 H   0  0  0  0  0  0  0  0  0  0  0  0
   -3.8991    0.2424   -6.9561 H   0  0  0  0  0  0  0  0  0  0  0  0
  1  2  2  0  0  0  0
  2  3  1  0  0  0  0
  3  4  1  0  0  0  0
  4  5  4  0  0  0  0
  5  6  2  0  0  0  0
  6  7  4  0  0  0  0
  4  8  4  0  0  0  0
  7  8  4  0  0  0  0
  7  9  1  0  0  0  0
  9 10  1  0  0  0  0
 10 11  2  0  0  0  0
  1 12  1  0  0  0  0
  1 13  1  0  0  0  0
  2 14  1  0  0  0  0
  3 15  1  0  0  0  0
  3 16  1  0  0  0  0
  5 17  1  0  0  0  0
  6 18  1  0  0  0  0
  8 19  1  0  0  0  0
  9 20  1  0  0  0  0
  9 21  1  0  0  0  0
 10 22  1  0  0  0  0
 11 23  1  0  0  0  0
 11 24  1  0  0  0  0
M  CHG  1   1   1
M  END
