29

C          1.40797        0.00840        0.39565
C          0.89978        1.44112        0.37492
C          1.02502        2.13040       -0.98600
C          0.40877        1.44001       -2.20821
N         -1.11498        1.59287       -2.39410
C         -1.61543        3.04817       -2.32995
C         -0.93948        3.97482       -3.32738
C         -1.47148        0.98077       -3.76156
C         -1.88671        0.78409       -1.34826
H          0.77060       -0.65422       -0.19601
H          1.41343       -0.37199        1.42232
H          2.42948       -0.05291        0.00750
H         -0.12689        1.47397        0.74407
H          1.48912        2.02044        1.09733
H          0.67290        3.16231       -0.89420
H          2.10128        2.21796       -1.19155
H          0.86574        1.86746       -3.10890
H          0.63039        0.36753       -2.22534
H         -2.69587        3.02226       -2.51593
H         -1.46290        3.40538       -1.30623
H         -1.12705        3.67326       -4.36134
H         -1.34020        4.98759       -3.21069
H          0.14069        4.03612       -3.17193
H         -1.23897       -0.08824       -3.72855
H         -2.53895        1.13485       -3.94483
H         -0.87373        1.46688       -4.53658
H         -1.45195       -0.21698       -1.28625
H         -1.83690        1.30116       -0.39024
H         -2.93345        0.72249       -1.66349
