 xtb: 6.7.1 (edcfbbe)
          12202407123D

 29 28  0     0  0            999 V2000
    1.4152   -0.0014    0.3636 C   0  0  0  0  0  0  0  0  0  0  0  0
    0.8839    1.4268    0.3867 C   0  0  0  0  0  0  0  0  0  0  0  0
    0.9860    2.1451   -0.9641 C   0  0  0  0  0  0  0  0  0  0  0  0
    0.3572    1.4677   -2.1858 C   0  0  0  0  0  0  0  0  0  0  0  0
   -1.1219    1.5898   -2.3969 N   0  0  0  0  0  0  0  0  0  0  0  0
   -1.5957    3.0074   -2.3552 C   0  0  0  0  0  0  0  0  0  0  0  0
   -0.9361    3.9518   -3.3472 C   0  0  0  0  0  0  0  0  0  0  0  0
   -1.4324    0.9945   -3.7124 C   0  0  0  0  0  0  0  0  0  0  0  0
   -1.8690    0.8319   -1.3764 C   0  0  0  0  0  0  0  0  0  0  0  0
    0.7715   -0.6729   -0.2005 H   0  0  0  0  0  0  0  0  0  0  0  0
    1.4754   -0.3852    1.3777 H   0  0  0  0  0  0  0  0  0  0  0  0
    2.4131   -0.0316   -0.0665 H   0  0  0  0  0  0  0  0  0  0  0  0
   -0.1346    1.4335    0.7762 H   0  0  0  0  0  0  0  0  0  0  0  0
    1.4858    2.0046    1.0898 H   0  0  0  0  0  0  0  0  0  0  0  0
    0.6259    3.1680   -0.8554 H   0  0  0  0  0  0  0  0  0  0  0  0
    2.0504    2.2164   -1.2012 H   0  0  0  0  0  0  0  0  0  0  0  0
    0.8292    1.8847   -3.0766 H   0  0  0  0  0  0  0  0  0  0  0  0
    0.5914    0.4026   -2.1571 H   0  0  0  0  0  0  0  0  0  0  0  0
   -2.6721    2.9905   -2.5400 H   0  0  0  0  0  0  0  0  0  0  0  0
   -1.4387    3.3789   -1.3416 H   0  0  0  0  0  0  0  0  0  0  0  0
   -1.1277    3.6701   -4.3782 H   0  0  0  0  0  0  0  0  0  0  0  0
   -1.3643    4.9401   -3.1988 H   0  0  0  0  0  0  0  0  0  0  0  0
    0.1351    4.0353   -3.1912 H   0  0  0  0  0  0  0  0  0  0  0  0
   -1.1745   -0.0630   -3.7127 H   0  0  0  0  0  0  0  0  0  0  0  0
   -2.4950    1.0936   -3.9265 H   0  0  0  0  0  0  0  0  0  0  0  0
   -0.8689    1.4850   -4.5021 H   0  0  0  0  0  0  0  0  0  0  0  0
   -1.5129   -0.1951   -1.3347 H   0  0  0  0  0  0  0  0  0  0  0  0
   -1.7462    1.2854   -0.3975 H   0  0  0  0  0  0  0  0  0  0  0  0
   -2.9298    0.8213   -1.6212 H   0  0  0  0  0  0  0  0  0  0  0  0
  1  2  1  0  0  0  0
  2  3  1  0  0  0  0
  3  4  1  0  0  0  0
  4  5  1  0  0  0  0
  5  6  1  0  0  0  0
  6  7  1  0  0  0  0
  5  8  1  0  0  0  0
  5  9  1  0  0  0  0
  1 10  1  0  0  0  0
  1 11  1  0  0  0  0
  1 12  1  0  0  0  0
  2 13  1  0  0  0  0
  2 14  1  0  0  0  0
  3 15  1  0  0  0  0
  3 16  1  0  0  0  0
  4 17  1  0  0  0  0
  4 18  1  0  0  0  0
  6 19  1  0  0  0  0
  6 20  1  0  0  0  0
  7 21  1  0  0  0  0
  7 22  1  0  0  0  0
  7 23  1  0  0  0  0
  8 24  1  0  0  0  0
  8 25  1  0  0  0  0
  8 26  1  0  0  0  0
  9 27  1  0  0  0  0
  9 28  1  0  0  0  0
  9 29  1  0  0  0  0
M  CHG  1   1   1
M  END
