29

C          1.06329       -0.80792       -0.06536
C          0.19297       -0.31117       -1.22090
C          0.94047       -0.27157       -2.55535
C          1.13581       -1.65869       -3.15298
S          0.07094       -1.77081        1.12206
C          0.15365       -3.36107        0.23441
C         -0.17132       -4.50541        1.18599
C          0.86859       -4.64649        2.30043
C          1.03905       -3.36884        3.12630
C          1.42739       -2.17196        2.26588
H          1.47089        0.05290        0.47642
H          1.91141       -1.40849       -0.40479
H         -0.71657       -0.91147       -1.34249
H         -0.14647        0.70497       -0.98140
H          0.36002        0.32997       -3.26480
H          1.91109        0.22282       -2.43498
H          0.17422       -2.16578       -3.28509
H          1.61451       -1.58335       -4.13425
H          1.76823       -2.28710       -2.51962
H          1.14866       -3.50288       -0.20040
H         -0.57523       -3.32404       -0.58036
H         -0.20895       -5.44229        0.61821
H         -1.16511       -4.36086        1.62839
H          0.57576       -5.46825        2.96363
H          1.83526       -4.92498        1.86112
H          0.10881       -3.16009        3.67037
H          1.81699       -3.53635        3.87985
H          1.59827       -1.29144        2.89240
H          2.34596       -2.38110        1.70754
