24

C          0.95865        0.01401        0.03884
C          0.23808       -0.21959       -1.06712
C         -1.25368       -0.14049       -1.14602
N         -1.60888        0.92656       -2.07768
C         -1.38301        2.28236       -1.89158
C         -1.86209        2.91819       -3.00119
N         -2.38268        1.93808       -3.83130
C         -2.23051        0.73699       -3.25098
C         -3.03254        2.15946       -5.12024
C         -2.30082        1.37324       -6.16109
C         -2.84791        0.41250       -6.91865
H          0.50126        0.28454        0.98671
H          2.04324       -0.06911        0.02365
H          0.76146       -0.49735       -1.97945
H         -1.66052       -1.09011       -1.50871
H         -1.71337        0.08037       -0.17663
H         -0.89804        2.61619       -0.99004
H         -1.90280        3.94943       -3.30774
H         -2.54880       -0.21524       -3.66089
H         -4.08086        1.85593       -5.02797
H         -3.00227        3.22521       -5.36927
H         -1.25406        1.62841       -6.31599
H         -2.25762       -0.10442       -7.67265
H         -3.89374        0.12796       -6.83671
