 xtb: 6.7.1 (edcfbbe)
          12202407123D

 28 28  0     0  0            999 V2000
    1.5400    2.0839    5.8138 C   0  0  0  0  0  0  0  0  0  0  0  0
    1.4616    0.6082    6.1645 C   0  0  0  0  0  0  0  0  0  0  0  0
    2.2823   -0.1851    5.2801 O   0  0  0  0  0  0  0  0  0  0  0  0
    1.7779   -0.5280    4.1229 C   0  0  0  0  0  0  0  0  0  0  0  0
    0.6926   -0.2620    3.6850 O   0  0  0  0  0  0  0  0  0  0  0  0
    2.7940   -1.3982    3.3322 C   0  0  0  0  0  0  0  0  0  0  0  0
    2.3301   -1.4910    1.9674 N   0  0  0  0  0  0  0  0  0  0  0  0
    1.1326   -2.0136    1.5823 C   0  0  0  0  0  0  0  0  0  0  0  0
    1.0205   -1.8171    0.2397 C   0  0  0  0  0  0  0  0  0  0  0  0
    2.1475   -1.1734   -0.1733 N   0  0  0  0  0  0  0  0  0  0  0  0
    2.9228   -0.9817    0.8884 C   0  0  0  0  0  0  0  0  0  0  0  0
    2.4244   -0.7688   -1.5248 C   0  0  0  0  0  0  0  0  0  0  0  0
    2.9124   -2.7745    3.9857 C   0  0  0  0  0  0  0  0  0  0  0  0
    2.5728    2.4238    5.8250 H   0  0  0  0  0  0  0  0  0  0  0  0
    0.9762    2.6531    6.5462 H   0  0  0  0  0  0  0  0  0  0  0  0
    1.1130    2.2651    4.8299 H   0  0  0  0  0  0  0  0  0  0  0  0
    1.8662    0.4133    7.1579 H   0  0  0  0  0  0  0  0  0  0  0  0
    0.4306    0.2503    6.0986 H   0  0  0  0  0  0  0  0  0  0  0  0
    3.7658   -0.8968    3.3408 H   0  0  0  0  0  0  0  0  0  0  0  0
    0.4449   -2.4641    2.2668 H   0  0  0  0  0  0  0  0  0  0  0  0
    0.2294   -2.0828   -0.4314 H   0  0  0  0  0  0  0  0  0  0  0  0
    3.8808   -0.4986    0.8785 H   0  0  0  0  0  0  0  0  0  0  0  0
    1.6784   -0.0462   -1.8580 H   0  0  0  0  0  0  0  0  0  0  0  0
    3.4106   -0.3140   -1.5830 H   0  0  0  0  0  0  0  0  0  0  0  0
    2.3888   -1.6326   -2.1892 H   0  0  0  0  0  0  0  0  0  0  0  0
    3.5972   -3.4043    3.4226 H   0  0  0  0  0  0  0  0  0  0  0  0
    3.2996   -2.6568    4.9936 H   0  0  0  0  0  0  0  0  0  0  0  0
    1.9460   -3.2682    4.0437 H   0  0  0  0  0  0  0  0  0  0  0  0
  1  2  1  0  0  0  0
  2  3  1  0  0  0  0
  3  4  4  0  0  0  0
  4  5  2  0  0  0  0
  4  6  1  0  0  0  0
  6  7  1  0  0  0  0
  7  8  4  0  0  0  0
  8  9  2  0  0  0  0
  9 10  4  0  0  0  0
  7 11  4  0  0  0  0
 10 11  4  0  0  0  0
 10 12  1  0  0  0  0
  6 13  1  0  0  0  0
  1 14  1  0  0  0  0
  1 15  1  0  0  0  0
  1 16  1  0  0  0  0
  2 17  1  0  0  0  0
  2 18  1  0  0  0  0
  6 19  1  0  0  0  0
  8 20  1  0  0  0  0
  9 21  1  0  0  0  0
 11 22  1  0  0  0  0
 12 23  1  0  0  0  0
 12 24  1  0  0  0  0
 12 25  1  0  0  0  0
 13 26  1  0  0  0  0
 13 27  1  0  0  0  0
 13 28  1  0  0  0  0
M  CHG  1   1   1
M  END
