43

C          1.85026        0.20763        0.45676
C          0.88674        1.38108        0.36564
C          1.16578        2.29013       -0.83242
C          0.66459        1.74712       -2.17323
N         -0.80849        1.62828       -2.22870
C         -1.49878        0.46356       -2.20575
C         -0.89300       -0.90290       -2.13757
N         -2.81674        0.77204       -2.25991
C         -2.97371        2.15770       -2.33378
C         -1.68916        2.70298       -2.32448
C         -1.46519        4.07653       -2.38343
C         -2.60564        4.89181       -2.42773
Cl        -2.33714        6.59960       -2.46544
C         -3.90620        4.34090       -2.43243
C         -4.11568        2.95385       -2.39368
Cl        -5.31869        5.33736       -2.47957
C         -3.93996       -0.18385       -2.16657
C         -4.47270       -0.61584       -3.53311
C         -3.65026       -1.70618       -4.21794
C         -3.51563       -2.97392       -3.41637
O         -2.53189       -3.69358       -3.40687
O         -4.59311       -3.26252       -2.67010
H          1.85548       -0.39264       -0.45614
H          1.56924       -0.44440        1.28999
H          2.87174        0.55882        0.63407
H         -0.14626        1.01837        0.34369
H          0.98790        1.97280        1.28355
H          0.69425        3.25927       -0.63683
H          2.24330        2.48081       -0.90526
H          0.96496        2.42803       -2.97919
H          1.12205        0.78123       -2.40376
H         -0.46968       -1.11313       -3.12052
H         -0.12742       -0.89086       -1.36646
H         -1.65447       -1.62735       -1.86801
H         -0.46454        4.49079       -2.38086
H         -5.11008        2.52493       -2.40099
H         -3.65016       -1.02621       -1.53454
H         -4.74701        0.31835       -1.61909
H         -5.49996       -0.97831       -3.40408
H         -4.53034        0.25131       -4.20146
H         -4.11139       -1.97175       -5.17552
H         -2.64460       -1.32828       -4.42898
H         -4.40827       -4.14693       -2.27995
