 xtb: 6.7.1 (edcfbbe)
          12202407123D

 53 55  0     0  0            999 V2000
    1.3976    0.0028   -0.0903 C   0  0  0  0  0  0  0  0  0  0  0  0
    0.9737   -0.6161    1.2362 C   0  0  0  0  0  0  0  0  0  0  0  0
    1.3391    0.2425    2.4495 C   0  0  0  0  0  0  0  0  0  0  0  0
    0.6583    1.6184    2.4612 C   0  0  0  0  0  0  0  0  0  0  0  0
   -0.7786    1.5252    2.3452 N   0  0  0  0  0  0  0  0  0  0  0  0
   -1.7355    1.5256    3.2814 C   0  0  0  0  0  0  0  0  0  0  0  0
   -2.9013    1.3299    3.0236 O   0  0  0  0  0  0  0  0  0  0  0  0
   -1.3107    1.8152    4.7430 C   0  0  0  0  0  0  0  0  0  0  0  0
   -0.5572    0.7438    5.3445 N   0  0  0  0  0  0  0  0  0  0  0  0
   -0.9592   -0.5321    5.4444 C   0  0  0  0  0  0  0  0  0  0  0  0
   -2.2144   -1.0567    4.8841 C   0  0  0  0  0  0  0  0  0  0  0  0
   -0.0184   -1.2554    6.0720 N   0  0  0  0  0  0  0  0  0  0  0  0
    1.0460   -0.4241    6.3730 C   0  0  0  0  0  0  0  0  0  0  0  0
    0.6918    0.8602    5.9258 C   0  0  0  0  0  0  0  0  0  0  0  0
    1.5441    1.9435    6.0980 C   0  0  0  0  0  0  0  0  0  0  0  0
    2.7608    1.6988    6.7010 C   0  0  0  0  0  0  0  0  0  0  0  0
    3.1281    0.4168    7.1131 C   0  0  0  0  0  0  0  0  0  0  0  0
    2.2833   -0.6635    6.9590 C   0  0  0  0  0  0  0  0  0  0  0  0
   -0.1018   -2.6645    6.3758 C   0  0  0  0  0  0  0  0  0  0  0  0
   -1.2886   -3.0124    7.3172 C   0  0  0  0  0  0  0  0  0  0  0  0
   -2.2375   -3.5862    6.8346 O   0  0  0  0  0  0  0  0  0  0  0  0
   -1.2170   -2.6296    8.7284 C   0  0  0  0  0  0  0  0  0  0  0  0
   -0.1473   -1.9385    9.3046 C   0  0  0  0  0  0  0  0  0  0  0  0
   -0.1711   -1.6233   10.6491 C   0  0  0  0  0  0  0  0  0  0  0  0
   -1.2507   -1.9920   11.4388 C   0  0  0  0  0  0  0  0  0  0  0  0
   -2.3181   -2.6781   10.8788 C   0  0  0  0  0  0  0  0  0  0  0  0
   -2.3033   -2.9931    9.5360 C   0  0  0  0  0  0  0  0  0  0  0  0
    0.8458    0.9144   -0.3056 H   0  0  0  0  0  0  0  0  0  0  0  0
    1.2120   -0.6968   -0.9005 H   0  0  0  0  0  0  0  0  0  0  0  0
    2.4595    0.2358   -0.0799 H   0  0  0  0  0  0  0  0  0  0  0  0
   -0.1024   -0.8050    1.2275 H   0  0  0  0  0  0  0  0  0  0  0  0
    1.4706   -1.5818    1.3469 H   0  0  0  0  0  0  0  0  0  0  0  0
    1.0747   -0.3039    3.3588 H   0  0  0  0  0  0  0  0  0  0  0  0
    2.4178    0.4051    2.4658 H   0  0  0  0  0  0  0  0  0  0  0  0
    0.9265    2.1475    3.3764 H   0  0  0  0  0  0  0  0  0  0  0  0
    1.0241    2.2068    1.6176 H   0  0  0  0  0  0  0  0  0  0  0  0
   -1.1284    1.3518    1.4109 H   0  0  0  0  0  0  0  0  0  0  0  0
   -0.7197    2.7298    4.7849 H   0  0  0  0  0  0  0  0  0  0  0  0
   -2.2390    1.9746    5.3014 H   0  0  0  0  0  0  0  0  0  0  0  0
   -2.9974   -0.3010    4.8952 H   0  0  0  0  0  0  0  0  0  0  0  0
   -2.0652   -1.3348    3.8380 H   0  0  0  0  0  0  0  0  0  0  0  0
   -2.5596   -1.9407    5.4124 H   0  0  0  0  0  0  0  0  0  0  0  0
    1.2761    2.9398    5.7856 H   0  0  0  0  0  0  0  0  0  0  0  0
    3.4483    2.5153    6.8521 H   0  0  0  0  0  0  0  0  0  0  0  0
    4.0962    0.2682    7.5636 H   0  0  0  0  0  0  0  0  0  0  0  0
    2.5907   -1.6484    7.2727 H   0  0  0  0  0  0  0  0  0  0  0  0
   -0.2626   -3.2286    5.4511 H   0  0  0  0  0  0  0  0  0  0  0  0
    0.8368   -2.9856    6.8262 H   0  0  0  0  0  0  0  0  0  0  0  0
    0.7075   -1.6423    8.7190 H   0  0  0  0  0  0  0  0  0  0  0  0
    0.6598   -1.0915   11.0872 H   0  0  0  0  0  0  0  0  0  0  0  0
   -1.2567   -1.7462   12.4894 H   0  0  0  0  0  0  0  0  0  0  0  0
   -3.1578   -2.9676   11.4909 H   0  0  0  0  0  0  0  0  0  0  0  0
   -3.1226   -3.5295    9.0818 H   0  0  0  0  0  0  0  0  0  0  0  0
  1  2  1  0  0  0  0
  2  3  1  0  0  0  0
  3  4  1  0  0  0  0
  4  5  1  0  0  0  0
  5  6  4  0  0  0  0
  6  7  2  0  0  0  0
  6  8  1  0  0  0  0
  8  9  1  0  0  0  0
  9 10  4  0  0  0  0
 10 11  1  0  0  0  0
 10 12  4  0  0  0  0
 12 13  1  0  0  0  0
  9 14  1  0  0  0  0
 13 14  4  0  0  0  0
 14 15  4  0  0  0  0
 15 16  4  0  0  0  0
 16 17  4  0  0  0  0
 13 18  4  0  0  0  0
 17 18  4  0  0  0  0
 12 19  1  0  0  0  0
 19 20  1  0  0  0  0
 20 21  2  0  0  0  0
 20 22  1  0  0  0  0
 22 23  4  0  0  0  0
 23 24  4  0  0  0  0
 24 25  4  0  0  0  0
 25 26  4  0  0  0  0
 22 27  4  0  0  0  0
 26 27  4  0  0  0  0
  1 28  1  0  0  0  0
  1 29  1  0  0  0  0
  1 30  1  0  0  0  0
  2 31  1  0  0  0  0
  2 32  1  0  0  0  0
  3 33  1  0  0  0  0
  3 34  1  0  0  0  0
  4 35  1  0  0  0  0
  4 36  1  0  0  0  0
  5 37  1  0  0  0  0
  8 38  1  0  0  0  0
  8 39  1  0  0  0  0
 11 40  1  0  0  0  0
 11 41  1  0  0  0  0
 11 42  1  0  0  0  0
 15 43  1  0  0  0  0
 16 44  1  0  0  0  0
 17 45  1  0  0  0  0
 18 46  1  0  0  0  0
 19 47  1  0  0  0  0
 19 48  1  0  0  0  0
 23 49  1  0  0  0  0
 24 50  1  0  0  0  0
 25 51  1  0  0  0  0
 26 52  1  0  0  0  0
 27 53  1  0  0  0  0
M  CHG  1   1   1
M  END
