29

C          1.09214        0.72807        0.39942
C          0.36919       -0.59219        0.58829
O          1.00724       -1.36151        1.61922
C          2.00240       -2.16586        1.21509
O          2.53771       -2.23655        0.12087
C          2.58519       -2.91193        2.38349
N          1.97474       -3.83917        3.06468
O          0.67953       -4.04850        2.57948
C          4.02158       -2.56312        2.66495
N          4.92121       -3.52454        2.00393
C          5.40564       -4.69870        2.55975
C          6.14588       -5.31568        1.59129
N          6.08143       -4.51082        0.46604
C          5.32740       -3.43249        0.72678
C          6.71375       -4.78466       -0.81827
H          1.13484        1.28128        1.34340
H          0.58506        1.34411       -0.34872
H          2.12593        0.56675        0.07730
H         -0.65992       -0.40868        0.91396
H          0.31758       -1.15572       -0.35082
H          0.30233       -4.69420        3.21084
H          4.25845       -1.55504        2.31000
H          4.20237       -2.59596        3.74462
H          5.15077       -4.94747        3.57617
H          6.70518       -6.23472        1.55020
H          5.09138       -2.63517        0.02978
H          6.22461       -4.20050       -1.60253
H          7.76917       -4.50674       -0.75719
H          6.62120       -5.84864       -1.05256
