 xtb: 6.7.1 (edcfbbe)
          12202407123D

 29 29  0     0  0            999 V2000
    0.8080    0.3812    0.2113 C   0  0  0  0  0  0  0  0  0  0  0  0
    0.7382   -1.1315    0.0774 C   0  0  0  0  0  0  0  0  0  0  0  0
    1.1700   -1.7668    1.2890 O   0  0  0  0  0  0  0  0  0  0  0  0
    2.4337   -2.0797    1.4167 C   0  0  0  0  0  0  0  0  0  0  0  0
    3.3028   -1.9272    0.5808 O   0  0  0  0  0  0  0  0  0  0  0  0
    2.7509   -2.7056    2.7477 C   0  0  0  0  0  0  0  0  0  0  0  0
    1.9494   -3.1451    3.6302 N   0  0  0  0  0  0  0  0  0  0  0  0
    0.6160   -3.0506    3.4405 O   0  0  0  0  0  0  0  0  0  0  0  0
    4.2237   -2.8475    3.0677 C   0  0  0  0  0  0  0  0  0  0  0  0
    4.8824   -3.6917    2.0975 N   0  0  0  0  0  0  0  0  0  0  0  0
    4.7820   -5.0490    2.0329 C   0  0  0  0  0  0  0  0  0  0  0  0
    5.4604   -5.4497    0.9235 C   0  0  0  0  0  0  0  0  0  0  0  0
    5.9561   -4.3289    0.3252 N   0  0  0  0  0  0  0  0  0  0  0  0
    5.5939   -3.2793    1.0519 C   0  0  0  0  0  0  0  0  0  0  0  0
    6.7418   -4.3054   -0.8787 C   0  0  0  0  0  0  0  0  0  0  0  0
    0.2141    0.7108    1.0594 H   0  0  0  0  0  0  0  0  0  0  0  0
    0.4183    0.8403   -0.6917 H   0  0  0  0  0  0  0  0  0  0  0  0
    1.8369    0.7042    0.3521 H   0  0  0  0  0  0  0  0  0  0  0  0
   -0.2904   -1.4664   -0.0629 H   0  0  0  0  0  0  0  0  0  0  0  0
    1.3667   -1.4786   -0.7482 H   0  0  0  0  0  0  0  0  0  0  0  0
    0.2062   -3.4246    4.2399 H   0  0  0  0  0  0  0  0  0  0  0  0
    4.6948   -1.8618    3.0445 H   0  0  0  0  0  0  0  0  0  0  0  0
    4.3230   -3.2830    4.0642 H   0  0  0  0  0  0  0  0  0  0  0  0
    4.2483   -5.6204    2.7647 H   0  0  0  0  0  0  0  0  0  0  0  0
    5.6198   -6.4321    0.5281 H   0  0  0  0  0  0  0  0  0  0  0  0
    5.8134   -2.2552    0.8202 H   0  0  0  0  0  0  0  0  0  0  0  0
    6.8602   -3.2802   -1.2216 H   0  0  0  0  0  0  0  0  0  0  0  0
    7.7267   -4.7382   -0.6960 H   0  0  0  0  0  0  0  0  0  0  0  0
    6.2467   -4.8864   -1.6566 H   0  0  0  0  0  0  0  0  0  0  0  0
  1  2  1  0  0  0  0
  2  3  1  0  0  0  0
  3  4  4  0  0  0  0
  4  5  2  0  0  0  0
  4  6  1  0  0  0  0
  6  7  2  0  0  0  0
  7  8  1  0  0  0  0
  6  9  1  0  0  0  0
  9 10  1  0  0  0  0
 10 11  4  0  0  0  0
 11 12  2  0  0  0  0
 12 13  4  0  0  0  0
 10 14  4  0  0  0  0
 13 14  4  0  0  0  0
 13 15  1  0  0  0  0
  1 16  1  0  0  0  0
  1 17  1  0  0  0  0
  1 18  1  0  0  0  0
  2 19  1  0  0  0  0
  2 20  1  0  0  0  0
  8 21  1  0  0  0  0
  9 22  1  0  0  0  0
  9 23  1  0  0  0  0
 11 24  1  0  0  0  0
 12 25  1  0  0  0  0
 14 26  1  0  0  0  0
 15 27  1  0  0  0  0
 15 28  1  0  0  0  0
 15 29  1  0  0  0  0
M  CHG  1   1   1
M  END
