 xtb: 6.7.1 (edcfbbe)
          12202407123D

 29 29  0     0  0            999 V2000
    1.0582   -1.1920   -0.3935 C   0  0  0  0  0  0  0  0  0  0  0  0
    0.0400   -0.7936   -1.4536 C   0  0  0  0  0  0  0  0  0  0  0  0
    0.7005   -0.0282   -2.6060 C   0  0  0  0  0  0  0  0  0  0  0  0
    1.6531   -0.8859   -3.4301 C   0  0  0  0  0  0  0  0  0  0  0  0
    0.2282   -1.9059    1.0733 S   0  0  0  0  0  0  0  0  0  0  0  0
   -0.1457   -3.6000    0.4987 C   0  0  0  0  0  0  0  0  0  0  0  0
   -0.4389   -4.4861    1.6998 C   0  0  0  0  0  0  0  0  0  0  0  0
    0.7807   -4.6465    2.6043 C   0  0  0  0  0  0  0  0  0  0  0  0
    1.2314   -3.3139    3.1983 C   0  0  0  0  0  0  0  0  0  0  0  0
    1.6646   -2.3287    2.1233 C   0  0  0  0  0  0  0  0  0  0  0  0
    1.5914   -0.3114   -0.0332 H   0  0  0  0  0  0  0  0  0  0  0  0
    1.7724   -1.9218   -0.7711 H   0  0  0  0  0  0  0  0  0  0  0  0
   -0.4524   -1.6806   -1.8557 H   0  0  0  0  0  0  0  0  0  0  0  0
   -0.7207   -0.1572   -0.9978 H   0  0  0  0  0  0  0  0  0  0  0  0
   -0.0931    0.3407   -3.2563 H   0  0  0  0  0  0  0  0  0  0  0  0
    1.2319    0.8390   -2.2108 H   0  0  0  0  0  0  0  0  0  0  0  0
    1.1504   -1.7790   -3.7942 H   0  0  0  0  0  0  0  0  0  0  0  0
    1.9998   -0.3225   -4.2912 H   0  0  0  0  0  0  0  0  0  0  0  0
    2.5282   -1.1831   -2.8572 H   0  0  0  0  0  0  0  0  0  0  0  0
    0.7110   -3.9659   -0.0666 H   0  0  0  0  0  0  0  0  0  0  0  0
   -1.0140   -3.5243   -0.1537 H   0  0  0  0  0  0  0  0  0  0  0  0
   -0.7481   -5.4649    1.3299 H   0  0  0  0  0  0  0  0  0  0  0  0
   -1.2729   -4.0713    2.2691 H   0  0  0  0  0  0  0  0  0  0  0  0
    0.5307   -5.3280    3.4164 H   0  0  0  0  0  0  0  0  0  0  0  0
    1.6014   -5.0956    2.0410 H   0  0  0  0  0  0  0  0  0  0  0  0
    0.4255   -2.8797    3.7930 H   0  0  0  0  0  0  0  0  0  0  0  0
    2.0788   -3.4812    3.8650 H   0  0  0  0  0  0  0  0  0  0  0  0
    2.0136   -1.3949    2.5621 H   0  0  0  0  0  0  0  0  0  0  0  0
    2.4428   -2.7493    1.4870 H   0  0  0  0  0  0  0  0  0  0  0  0
  1  2  1  0  0  0  0
  2  3  1  0  0  0  0
  3  4  1  0  0  0  0
  1  5  1  0  0  0  0
  5  6  1  0  0  0  0
  6  7  1  0  0  0  0
  7  8  1  0  0  0  0
  8  9  1  0  0  0  0
  5 10  1  0  0  0  0
  9 10  1  0  0  0  0
  1 11  1  0  0  0  0
  1 12  1  0  0  0  0
  2 13  1  0  0  0  0
  2 14  1  0  0  0  0
  3 15  1  0  0  0  0
  3 16  1  0  0  0  0
  4 17  1  0  0  0  0
  4 18  1  0  0  0  0
  4 19  1  0  0  0  0
  6 20  1  0  0  0  0
  6 21  1  0  0  0  0
  7 22  1  0  0  0  0
  7 23  1  0  0  0  0
  8 24  1  0  0  0  0
  8 25  1  0  0  0  0
  9 26  1  0  0  0  0
  9 27  1  0  0  0  0
 10 28  1  0  0  0  0
 10 29  1  0  0  0  0
M  CHG  1   1   1
M  END
