46

C          0.75913       -0.03379       -0.49772
C          0.46663       -1.52475       -0.57378
C          1.12184       -2.33607        0.54677
C          0.72684       -1.93962        1.97290
C         -0.77168       -1.98785        2.29035
C         -1.45992       -3.34348        2.12586
N         -1.14156       -4.41761        3.12794
C         -1.63806       -5.66553        2.99618
C         -2.54515       -6.00218        1.84579
C         -1.83957       -6.89203        0.82521
C         -1.87562       -8.37333        1.19288
C         -1.20660       -8.71447        2.52101
C         -1.86267       -8.04001        3.71765
N         -1.35666       -6.64725        3.86448
C         -0.48056       -6.40148        5.02432
C         -0.62258       -4.97195        5.46233
C         -0.26564       -4.11185        4.27920
H          0.29986        0.42101        0.38491
H          0.35446        0.47405       -1.37913
H          1.83679        0.15482       -0.46345
H         -0.61681       -1.68570       -0.57880
H          0.83902       -1.90261       -1.53373
H          0.90227       -3.39827        0.38828
H          2.21152       -2.23914        0.45686
H          1.28002       -2.57794        2.66715
H          1.08384       -0.92139        2.17099
H         -0.94329       -1.58991        3.29584
H         -1.28159       -1.27870        1.62591
H         -2.53953       -3.16469        2.19836
H         -1.24466       -3.73593        1.12686
H         -2.90442       -5.11181        1.32610
H         -3.46416       -6.47383        2.21323
H         -0.80241       -6.56514        0.68404
H         -2.34289       -6.77927       -0.14296
H         -2.91798       -8.71615        1.21431
H         -1.38140       -8.94287        0.39637
H         -1.27369       -9.80095        2.65666
H         -0.14019       -8.46345        2.47838
H         -1.60494       -8.60530        4.62067
H         -2.95602       -8.03418        3.66074
H          0.54871       -6.64342        4.73628
H         -0.76632       -7.05894        5.85246
H          0.04085       -4.76000        6.30702
H         -1.65199       -4.77054        5.78118
H          0.77268       -4.28037        3.97476
H         -0.37907       -3.07084        4.58493
