26

O          0.74146        1.09380        0.61295
C          0.56908        0.77141       -0.76025
C          1.23081        1.82352       -1.66781
N          2.78014        1.94331       -1.53292
C          3.44091        0.60364       -1.81141
C          3.23368        3.00864       -2.57340
C          4.68543        3.45109       -2.35872
O          4.87754        3.95461       -1.03652
C          4.61254        2.95190       -0.05391
C          3.15706        2.46360       -0.11529
H          0.16558        0.49694        1.13002
H          0.96035       -0.23268       -0.94361
H         -0.50621        0.75525       -0.96803
H          1.02837        1.58693       -2.71862
H          0.82600        2.81653       -1.44031
H          3.18709       -0.09067       -1.00659
H          3.07389        0.23252       -2.77255
H          4.52428        0.73058       -1.84910
H          2.56892        3.86970       -2.43761
H          3.08305        2.58213       -3.57067
H          4.92113        4.26213       -3.05545
H          5.39906        2.64376       -2.55353
H          5.32264        2.12624       -0.17421
H          4.80105        3.39756        0.92824
H          3.01418        1.64947        0.59867
H          2.47607        3.29403        0.10024
