45

C          1.67956       -0.45682       -0.26429
C          0.66833       -1.02612        0.71886
C          0.89370       -0.53712        2.14823
C         -0.08965       -1.13759        3.13081
O         -0.62236       -2.22934        3.05264
O         -0.32430       -0.24150        4.14043
C          0.49722        0.90474        3.93392
C          0.70429        0.96037        2.42766
C         -0.50722        1.57570        1.69204
C         -0.79750        2.97882        2.10069
C         -0.02746        4.11551        1.96707
N         -0.70913        5.16106        2.55899
C         -1.89859        4.72360        2.98833
N         -1.97270        3.40678        2.73619
C         -3.14265        2.60507        3.10071
C         -0.23131        6.53574        2.71518
C         -0.94317        7.41861        1.72507
C         -2.12665        8.08631        2.08092
C         -2.79098        8.89507        1.15538
C         -2.27497        9.04505       -0.12951
C         -1.10239        8.39089       -0.49900
C         -0.44120        7.57577        0.42333
Br        -3.16921       10.14647       -1.37676
H          1.61300        0.63263       -0.33009
H          1.50068       -0.86453       -1.26443
H          2.70055       -0.72019        0.02964
H         -0.34943       -0.80237        0.37921
H          0.74962       -2.12061        0.69975
H          1.89361       -0.84769        2.48164
H          1.44107        0.75866        4.47260
H          0.00365        1.78633        4.35041
H          1.60701        1.53213        2.18297
H         -0.31897        1.59877        0.61276
H         -1.39584        0.95656        1.83652
H          0.94541        4.30121        1.54293
H         -2.66405        5.31906        3.47256
H         -3.03299        2.27934        4.13814
H         -4.04104        3.22207        3.00351
H         -3.25055        1.74135        2.44362
H         -0.42433        6.85832        3.74469
H          0.85331        6.57002        2.56199
H         -2.53964        8.00168        3.08403
H         -3.70333        9.41235        1.44522
H         -0.69443        8.51518       -1.49998
H          0.47623        7.07831        0.11453
