 xtb: 6.7.1 (edcfbbe)
          12202407123D

 34 35  0     0  0            999 V2000
    1.4437    2.1091    2.0780 C   0  0  0  0  0  0  0  0  0  0  0  0
    0.8838    1.0111    1.2415 C   0  0  0  0  0  0  0  0  0  0  0  0
    1.1835   -0.3218    1.5364 C   0  0  0  0  0  0  0  0  0  0  0  0
    0.6738   -1.3389    0.7696 C   0  0  0  0  0  0  0  0  0  0  0  0
   -0.1524   -1.0752   -0.3387 C   0  0  0  0  0  0  0  0  0  0  0  0
   -0.4500    0.2716   -0.6565 C   0  0  0  0  0  0  0  0  0  0  0  0
    0.0711    1.2745    0.1492 C   0  0  0  0  0  0  0  0  0  0  0  0
   -1.3035    0.6487   -1.8174 C   0  0  0  0  0  0  0  0  0  0  0  0
   -0.6781   -2.1514   -1.1510 C   0  0  0  0  0  0  0  0  0  0  0  0
   -1.2599   -2.0429   -2.2105 O   0  0  0  0  0  0  0  0  0  0  0  0
   -0.4657   -3.6107   -0.6135 C   0  0  0  0  0  0  0  0  0  0  0  0
   -1.2959   -4.4788   -1.3900 N   0  0  0  0  0  0  0  0  0  0  0  0
   -2.4084   -5.1448   -0.9671 C   0  0  0  0  0  0  0  0  0  0  0  0
   -3.0262   -5.6422   -2.0716 C   0  0  0  0  0  0  0  0  0  0  0  0
   -2.2927   -5.2599   -3.1554 N   0  0  0  0  0  0  0  0  0  0  0  0
   -1.2576   -4.5463   -2.7212 C   0  0  0  0  0  0  0  0  0  0  0  0
   -2.6079   -5.5664   -4.5239 C   0  0  0  0  0  0  0  0  0  0  0  0
    0.9998    3.0673    1.8238 H   0  0  0  0  0  0  0  0  0  0  0  0
    1.2764    1.9073    3.1344 H   0  0  0  0  0  0  0  0  0  0  0  0
    2.5210    2.1757    1.9261 H   0  0  0  0  0  0  0  0  0  0  0  0
    1.8221   -0.5494    2.3763 H   0  0  0  0  0  0  0  0  0  0  0  0
    0.9403   -2.3523    1.0236 H   0  0  0  0  0  0  0  0  0  0  0  0
   -0.1638    2.3014   -0.0899 H   0  0  0  0  0  0  0  0  0  0  0  0
   -1.4760    1.7210   -1.8328 H   0  0  0  0  0  0  0  0  0  0  0  0
   -0.8236    0.3553   -2.7501 H   0  0  0  0  0  0  0  0  0  0  0  0
   -2.2623    0.1341   -1.7825 H   0  0  0  0  0  0  0  0  0  0  0  0
    0.5880   -3.8707   -0.7424 H   0  0  0  0  0  0  0  0  0  0  0  0
   -0.7440   -3.6893    0.4364 H   0  0  0  0  0  0  0  0  0  0  0  0
   -2.6757   -5.2233    0.0667 H   0  0  0  0  0  0  0  0  0  0  0  0
   -3.9190   -6.2268   -2.1579 H   0  0  0  0  0  0  0  0  0  0  0  0
   -0.4955   -4.1206   -3.3430 H   0  0  0  0  0  0  0  0  0  0  0  0
   -1.8411   -5.1593   -5.1786 H   0  0  0  0  0  0  0  0  0  0  0  0
   -2.6643   -6.6464   -4.6638 H   0  0  0  0  0  0  0  0  0  0  0  0
   -3.5708   -5.1302   -4.7925 H   0  0  0  0  0  0  0  0  0  0  0  0
  1  2  1  0  0  0  0
  2  3  4  0  0  0  0
  3  4  2  0  0  0  0
  4  5  4  0  0  0  0
  5  6  4  0  0  0  0
  2  7  4  0  0  0  0
  6  7  4  0  0  0  0
  6  8  1  0  0  0  0
  5  9  1  0  0  0  0
  9 10  2  0  0  0  0
  9 11  1  0  0  0  0
 11 12  1  0  0  0  0
 12 13  4  0  0  0  0
 13 14  2  0  0  0  0
 14 15  4  0  0  0  0
 12 16  4  0  0  0  0
 15 16  4  0  0  0  0
 15 17  1  0  0  0  0
  1 18  1  0  0  0  0
  1 19  1  0  0  0  0
  1 20  1  0  0  0  0
  3 21  1  0  0  0  0
  4 22  1  0  0  0  0
  7 23  1  0  0  0  0
  8 24  1  0  0  0  0
  8 25  1  0  0  0  0
  8 26  1  0  0  0  0
 11 27  1  0  0  0  0
 11 28  1  0  0  0  0
 13 29  1  0  0  0  0
 14 30  1  0  0  0  0
 16 31  1  0  0  0  0
 17 32  1  0  0  0  0
 17 33  1  0  0  0  0
 17 34  1  0  0  0  0
M  CHG  1   1   1
M  END
