34

C          0.92267        0.67617       -0.15120
C          1.55948        1.05972       -1.47535
O          1.48475       -0.01979       -2.42400
C          2.37249       -1.03968       -2.26599
O          3.19192       -1.13701       -1.36146
C          2.15326       -2.09103       -3.34398
N          2.09284       -3.46865       -2.79972
C          1.25398       -3.87454       -1.82045
C          0.27135       -3.02443       -1.07549
N          1.44710       -5.19782       -1.63970
C          2.43390       -5.65684       -2.50587
C          2.86607       -4.54320       -3.23418
C          3.87045       -4.63666       -4.19701
C          4.41435       -5.91187       -4.40447
C          3.97045       -7.03252       -3.67999
C          2.96773       -6.92848       -2.70815
C          0.72176       -6.01052       -0.66543
H         -0.07777        0.25916       -0.30504
H          0.84789        1.54640        0.50725
H          1.51227       -0.08879        0.36314
H          1.00376        1.89567       -1.91314
H          2.59711        1.38673       -1.34841
H          1.20552       -1.91443       -3.86404
H          2.96376       -1.99566       -4.07110
H          0.82594       -2.51810       -0.28502
H         -0.16967       -2.32093       -1.78171
H         -0.50502       -3.66414       -0.65780
H          4.21827       -3.77945       -4.75911
H          5.20204       -6.04200       -5.14786
H          4.42033       -8.00589       -3.88001
H          2.62838       -7.79299       -2.15186
H          0.83477       -5.56320        0.32592
H         -0.33498       -6.03627       -0.94572
H          1.10429       -7.03223       -0.63476
