 xtb: 6.7.1 (edcfbbe)
          12202407123D

 28 27  0     0  0            999 V2000
    0.6060   -0.4608   -0.5075 F   0  0  0  0  0  0  0  0  0  0  0  0
    1.9035   -0.1179   -0.5919 C   0  0  0  0  0  0  0  0  0  0  0  0
    2.0116    1.4030   -0.9048 C   0  0  0  0  0  0  0  0  0  0  0  0
    2.1489    2.9814    2.5524 S   0  0  0  0  0  0  0  0  0  0  0  0
    3.3869    2.1695    1.8385 F   0  0  0  0  0  0  0  0  0  0  0  0
    1.3884    1.4307    2.6424 F   0  0  0  0  0  0  0  0  0  0  0  0
    2.6295    2.7678    4.0730 F   0  0  0  0  0  0  0  0  0  0  0  0
    3.0397    4.3795    2.4486 F   0  0  0  0  0  0  0  0  0  0  0  0
    1.4962    2.1468    0.0939 F   0  0  0  0  0  0  0  0  0  0  0  0
    3.2872    1.7480   -1.0387 F   0  0  0  0  0  0  0  0  0  0  0  0
    1.3705    1.7205   -2.0131 F   0  0  0  0  0  0  0  0  0  0  0  0
    2.6811   -0.5417    0.6487 C   0  0  0  0  0  0  0  0  0  0  0  0
    2.4971   -2.0319    0.9540 C   0  0  0  0  0  0  0  0  0  0  0  0
    2.8948   -2.8810   -0.1583 N   0  0  0  0  0  0  0  0  0  0  0  0
    4.1615   -2.9789   -0.5510 C   0  0  0  0  0  0  0  0  0  0  0  0
    4.4738   -3.7440   -1.6679 C   0  0  0  0  0  0  0  0  0  0  0  0
    3.4391   -4.3826   -2.3309 C   0  0  0  0  0  0  0  0  0  0  0  0
    2.1506   -4.2268   -1.8080 C   0  0  0  0  0  0  0  0  0  0  0  0
    1.9146   -3.4904   -0.7506 N   0  0  0  0  0  0  0  0  0  0  0  0
    2.3850   -0.7699   -1.6958 F   0  0  0  0  0  0  0  0  0  0  0  0
    3.7285   -0.2701    0.5070 H   0  0  0  0  0  0  0  0  0  0  0  0
    2.2936    0.0135    1.5044 H   0  0  0  0  0  0  0  0  0  0  0  0
    3.0844   -2.2826    1.8399 H   0  0  0  0  0  0  0  0  0  0  0  0
    1.4409   -2.2417    1.1438 H   0  0  0  0  0  0  0  0  0  0  0  0
    4.9155   -2.4528    0.0175 H   0  0  0  0  0  0  0  0  0  0  0  0
    5.4976   -3.8249   -1.9993 H   0  0  0  0  0  0  0  0  0  0  0  0
    3.6119   -4.9789   -3.2127 H   0  0  0  0  0  0  0  0  0  0  0  0
    1.2812   -4.6967   -2.2446 H   0  0  0  0  0  0  0  0  0  0  0  0
  1  2  1  0  0  0  0
  2  3  1  0  0  0  0
  4  5  1  0  0  0  0
  4  6  1  0  0  0  0
  4  7  1  0  0  0  0
  4  8  1  0  0  0  0
  3  9  1  0  0  0  0
  3 10  1  0  0  0  0
  3 11  1  0  0  0  0
  2 12  1  0  0  0  0
 12 13  1  0  0  0  0
 13 14  1  0  0  0  0
 14 15  4  0  0  0  0
 15 16  4  0  0  0  0
 16 17  4  0  0  0  0
 17 18  4  0  0  0  0
 14 19  4  0  0  0  0
 18 19  4  0  0  0  0
  2 20  1  0  0  0  0
 12 21  1  0  0  0  0
 12 22  1  0  0  0  0
 13 23  1  0  0  0  0
 13 24  1  0  0  0  0
 15 25  1  0  0  0  0
 16 26  1  0  0  0  0
 17 27  1  0  0  0  0
 18 28  1  0  0  0  0
M  CHG  1   1   1
M  END
