 xtb: 6.7.1 (edcfbbe)
          12202407123D

 45 47  0     0  0            999 V2000
    1.8212   -0.6829   -0.1584 C   0  0  0  0  0  0  0  0  0  0  0  0
    0.5593   -0.9644    0.6477 C   0  0  0  0  0  0  0  0  0  0  0  0
    0.6819   -0.4872    2.0915 C   0  0  0  0  0  0  0  0  0  0  0  0
   -0.5088   -0.8873    2.9608 C   0  0  0  0  0  0  0  0  0  0  0  0
   -1.2550   -1.8016    2.8164 O   0  0  0  0  0  0  0  0  0  0  0  0
   -0.6485    0.0256    3.9580 O   0  0  0  0  0  0  0  0  0  0  0  0
    0.3825    0.9973    3.8639 C   0  0  0  0  0  0  0  0  0  0  0  0
    0.7553    1.0215    2.3776 C   0  0  0  0  0  0  0  0  0  0  0  0
   -0.2939    1.7834    1.5360 C   0  0  0  0  0  0  0  0  0  0  0  0
   -0.6355    3.1171    2.0916 C   0  0  0  0  0  0  0  0  0  0  0  0
    0.0583    4.2956    2.0461 C   0  0  0  0  0  0  0  0  0  0  0  0
   -0.6605    5.2339    2.7203 N   0  0  0  0  0  0  0  0  0  0  0  0
   -1.7713    4.6548    3.1636 C   0  0  0  0  0  0  0  0  0  0  0  0
   -1.7806    3.3725    2.8041 N   0  0  0  0  0  0  0  0  0  0  0  0
   -2.8256    2.4279    3.1077 C   0  0  0  0  0  0  0  0  0  0  0  0
   -0.3214    6.6389    2.8479 C   0  0  0  0  0  0  0  0  0  0  0  0
   -1.0319    7.4469    1.7849 C   0  0  0  0  0  0  0  0  0  0  0  0
   -2.1414    8.2179    2.1076 C   0  0  0  0  0  0  0  0  0  0  0  0
   -2.7983    8.9455    1.1325 C   0  0  0  0  0  0  0  0  0  0  0  0
   -2.3470    8.8926   -0.1783 C   0  0  0  0  0  0  0  0  0  0  0  0
   -1.2419    8.1236   -0.5159 C   0  0  0  0  0  0  0  0  0  0  0  0
   -0.5898    7.4047    0.4673 C   0  0  0  0  0  0  0  0  0  0  0  0
   -3.2504    9.8810   -1.5259 Br  0  0  0  0  0  0  0  0  0  0  0  0
    2.0189    0.3849   -0.2266 H   0  0  0  0  0  0  0  0  0  0  0  0
    1.7126   -1.0727   -1.1661 H   0  0  0  0  0  0  0  0  0  0  0  0
    2.6831   -1.1623    0.2984 H   0  0  0  0  0  0  0  0  0  0  0  0
   -0.3038   -0.5087    0.1616 H   0  0  0  0  0  0  0  0  0  0  0  0
    0.3769   -2.0396    0.6773 H   0  0  0  0  0  0  0  0  0  0  0  0
    1.5637   -0.9666    2.5349 H   0  0  0  0  0  0  0  0  0  0  0  0
    1.2375    0.6797    4.4718 H   0  0  0  0  0  0  0  0  0  0  0  0
    0.0045    1.9381    4.2658 H   0  0  0  0  0  0  0  0  0  0  0  0
    1.7467    1.4444    2.2221 H   0  0  0  0  0  0  0  0  0  0  0  0
    0.0995    1.9089    0.5268 H   0  0  0  0  0  0  0  0  0  0  0  0
   -1.2005    1.1808    1.4754 H   0  0  0  0  0  0  0  0  0  0  0  0
    1.0017    4.5120    1.5888 H   0  0  0  0  0  0  0  0  0  0  0  0
   -2.5416    5.1448    3.7263 H   0  0  0  0  0  0  0  0  0  0  0  0
   -2.4170    1.5415    3.5967 H   0  0  0  0  0  0  0  0  0  0  0  0
   -3.5511    2.8929    3.7703 H   0  0  0  0  0  0  0  0  0  0  0  0
   -3.3339    2.1192    2.1932 H   0  0  0  0  0  0  0  0  0  0  0  0
   -0.6139    6.9820    3.8421 H   0  0  0  0  0  0  0  0  0  0  0  0
    0.7610    6.7349    2.7412 H   0  0  0  0  0  0  0  0  0  0  0  0
   -2.4892    8.2696    3.1287 H   0  0  0  0  0  0  0  0  0  0  0  0
   -3.6527    9.5523    1.3862 H   0  0  0  0  0  0  0  0  0  0  0  0
   -0.8944    8.0954   -1.5363 H   0  0  0  0  0  0  0  0  0  0  0  0
    0.2767    6.8168    0.2034 H   0  0  0  0  0  0  0  0  0  0  0  0
  1  2  1  0  0  0  0
  2  3  1  0  0  0  0
  3  4  1  0  0  0  0
  4  5  2  0  0  0  0
  4  6  1  0  0  0  0
  6  7  1  0  0  0  0
  3  8  1  0  0  0  0
  7  8  1  0  0  0  0
  8  9  1  0  0  0  0
  9 10  1  0  0  0  0
 10 11  2  0  0  0  0
 11 12  4  0  0  0  0
 12 13  4  0  0  0  0
 10 14  1  0  0  0  0
 13 14  4  0  0  0  0
 14 15  1  0  0  0  0
 12 16  1  0  0  0  0
 16 17  1  0  0  0  0
 17 18  4  0  0  0  0
 18 19  4  0  0  0  0
 19 20  4  0  0  0  0
 20 21  4  0  0  0  0
 17 22  4  0  0  0  0
 21 22  4  0  0  0  0
 20 23  1  0  0  0  0
  1 24  1  0  0  0  0
  1 25  1  0  0  0  0
  1 26  1  0  0  0  0
  2 27  1  0  0  0  0
  2 28  1  0  0  0  0
  3 29  1  0  0  0  0
  7 30  1  0  0  0  0
  7 31  1  0  0  0  0
  8 32  1  0  0  0  0
  9 33  1  0  0  0  0
  9 34  1  0  0  0  0
 11 35  1  0  0  0  0
 13 36  1  0  0  0  0
 15 37  1  0  0  0  0
 15 38  1  0  0  0  0
 15 39  1  0  0  0  0
 16 40  1  0  0  0  0
 16 41  1  0  0  0  0
 18 42  1  0  0  0  0
 19 43  1  0  0  0  0
 21 44  1  0  0  0  0
 22 45  1  0  0  0  0
M  CHG  1   1   1
M  END
