 xtb: 6.7.1 (edcfbbe)
          12202407123D

 36 38  0     0  0            999 V2000
   -0.1333   -0.0420    0.5526 C   0  0  0  0  0  0  0  0  0  0  0  0
    0.2083    1.4333    0.5716 C   0  0  0  0  0  0  0  0  0  0  0  0
    1.4107    1.8687    0.0270 C   0  0  0  0  0  0  0  0  0  0  0  0
    1.7329    3.2140    0.0434 C   0  0  0  0  0  0  0  0  0  0  0  0
    0.8576    4.1300    0.6039 C   0  0  0  0  0  0  0  0  0  0  0  0
   -0.3416    3.6997    1.1452 C   0  0  0  0  0  0  0  0  0  0  0  0
   -0.6700    2.3545    1.1244 C   0  0  0  0  0  0  0  0  0  0  0  0
   -0.2434   -0.5169   -0.8194 N   0  0  0  0  0  0  0  0  0  0  0  0
    0.6320   -1.3895   -1.3102 C   0  0  0  0  0  0  0  0  0  0  0  0
    0.5326   -1.8439   -2.6176 C   0  0  0  0  0  0  0  0  0  0  0  0
   -0.4645   -1.3308   -3.4367 C   0  0  0  0  0  0  0  0  0  0  0  0
   -1.3586   -0.4076   -2.9037 C   0  0  0  0  0  0  0  0  0  0  0  0
   -1.2314   -0.0323   -1.5866 C   0  0  0  0  0  0  0  0  0  0  0  0
    1.4842   -2.8742   -3.1657 C   0  0  0  0  0  0  0  0  0  0  0  0
    2.1540   -2.6801   -4.1437 O   0  0  0  0  0  0  0  0  0  0  0  0
    1.5048   -4.0670   -2.4861 N   0  0  0  0  0  0  0  0  0  0  0  0
    0.6727   -4.4858   -1.4338 C   0  0  0  0  0  0  0  0  0  0  0  0
    0.8878   -5.7565   -1.1826 O   0  0  0  0  0  0  0  0  0  0  0  0
    1.8802   -6.3182   -2.0387 C   0  0  0  0  0  0  0  0  0  0  0  0
    2.3286   -5.1722   -2.9557 C   0  0  0  0  0  0  0  0  0  0  0  0
   -0.1019   -3.7824   -0.8480 O   0  0  0  0  0  0  0  0  0  0  0  0
   -1.0865   -0.2125    1.0590 H   0  0  0  0  0  0  0  0  0  0  0  0
    0.6368   -0.6214    1.0657 H   0  0  0  0  0  0  0  0  0  0  0  0
    2.1010    1.1571   -0.4042 H   0  0  0  0  0  0  0  0  0  0  0  0
    2.6695    3.5456   -0.3765 H   0  0  0  0  0  0  0  0  0  0  0  0
    1.1130    5.1777    0.6220 H   0  0  0  0  0  0  0  0  0  0  0  0
   -1.0237    4.4092    1.5862 H   0  0  0  0  0  0  0  0  0  0  0  0
   -1.6028    2.0224    1.5563 H   0  0  0  0  0  0  0  0  0  0  0  0
    1.4177   -1.7305   -0.6525 H   0  0  0  0  0  0  0  0  0  0  0  0
   -0.5423   -1.6542   -4.4635 H   0  0  0  0  0  0  0  0  0  0  0  0
   -2.1530    0.0032   -3.5058 H   0  0  0  0  0  0  0  0  0  0  0  0
   -1.9092    0.6692   -1.1224 H   0  0  0  0  0  0  0  0  0  0  0  0
    1.4259   -7.1498   -2.5817 H   0  0  0  0  0  0  0  0  0  0  0  0
    2.6874   -6.7011   -1.4101 H   0  0  0  0  0  0  0  0  0  0  0  0
    2.1306   -5.3646   -4.0130 H   0  0  0  0  0  0  0  0  0  0  0  0
    3.3865   -4.9246   -2.8423 H   0  0  0  0  0  0  0  0  0  0  0  0
  1  2  1  0  0  0  0
  2  3  4  0  0  0  0
  3  4  4  0  0  0  0
  4  5  4  0  0  0  0
  5  6  4  0  0  0  0
  2  7  4  0  0  0  0
  6  7  4  0  0  0  0
  1  8  1  0  0  0  0
  8  9  4  0  0  0  0
  9 10  4  0  0  0  0
 10 11  4  0  0  0  0
 11 12  4  0  0  0  0
  8 13  4  0  0  0  0
 12 13  4  0  0  0  0
 10 14  1  0  0  0  0
 14 15  2  0  0  0  0
 14 16  1  0  0  0  0
 16 17  1  0  0  0  0
 17 18  1  0  0  0  0
 18 19  1  0  0  0  0
 16 20  1  0  0  0  0
 19 20  1  0  0  0  0
 17 21  2  0  0  0  0
  1 22  1  0  0  0  0
  1 23  1  0  0  0  0
  3 24  1  0  0  0  0
  4 25  1  0  0  0  0
  5 26  1  0  0  0  0
  6 27  1  0  0  0  0
  7 28  1  0  0  0  0
  9 29  1  0  0  0  0
 11 30  1  0  0  0  0
 12 31  1  0  0  0  0
 13 32  1  0  0  0  0
 19 33  1  0  0  0  0
 19 34  1  0  0  0  0
 20 35  1  0  0  0  0
 20 36  1  0  0  0  0
M  CHG  1   1   1
M  END
