 xtb: 6.7.1 (edcfbbe)
          12202407123D

 26 26  0     0  0            999 V2000
    1.0455    0.6982    0.4812 O   0  0  0  0  0  0  0  0  0  0  0  0
    0.6078    0.7383   -0.8566 C   0  0  0  0  0  0  0  0  0  0  0  0
    1.2595    1.9147   -1.5951 C   0  0  0  0  0  0  0  0  0  0  0  0
    2.7478    2.0117   -1.4882 N   0  0  0  0  0  0  0  0  0  0  0  0
    3.3486    0.6801   -1.6855 C   0  0  0  0  0  0  0  0  0  0  0  0
    3.2183    2.9624   -2.5387 C   0  0  0  0  0  0  0  0  0  0  0  0
    4.6940    3.3501   -2.3669 C   0  0  0  0  0  0  0  0  0  0  0  0
    4.9360    3.8763   -1.0918 O   0  0  0  0  0  0  0  0  0  0  0  0
    4.6101    2.9483   -0.0887 C   0  0  0  0  0  0  0  0  0  0  0  0
    3.1273    2.5765   -0.1587 C   0  0  0  0  0  0  0  0  0  0  0  0
    0.4469    0.1584    1.0087 H   0  0  0  0  0  0  0  0  0  0  0  0
    0.8291   -0.2116   -1.3610 H   0  0  0  0  0  0  0  0  0  0  0  0
   -0.4747    0.9021   -0.9157 H   0  0  0  0  0  0  0  0  0  0  0  0
    0.9967    1.8246   -2.6512 H   0  0  0  0  0  0  0  0  0  0  0  0
    0.8403    2.8456   -1.2091 H   0  0  0  0  0  0  0  0  0  0  0  0
    3.0979    0.0398   -0.8427 H   0  0  0  0  0  0  0  0  0  0  0  0
    2.9716    0.2391   -2.6068 H   0  0  0  0  0  0  0  0  0  0  0  0
    4.4304    0.7512   -1.7537 H   0  0  0  0  0  0  0  0  0  0  0  0
    2.6162    3.8702   -2.4592 H   0  0  0  0  0  0  0  0  0  0  0  0
    3.0654    2.5167   -3.5225 H   0  0  0  0  0  0  0  0  0  0  0  0
    4.9348    4.1423   -3.0783 H   0  0  0  0  0  0  0  0  0  0  0  0
    5.3565    2.4960   -2.5681 H   0  0  0  0  0  0  0  0  0  0  0  0
    5.2542    2.0606   -0.1536 H   0  0  0  0  0  0  0  0  0  0  0  0
    4.8053    3.4454    0.8629 H   0  0  0  0  0  0  0  0  0  0  0  0
    2.8620    1.8600    0.6175 H   0  0  0  0  0  0  0  0  0  0  0  0
    2.5465    3.4889   -0.0085 H   0  0  0  0  0  0  0  0  0  0  0  0
  1  2  1  0  0  0  0
  2  3  1  0  0  0  0
  3  4  1  0  0  0  0
  4  5  1  0  0  0  0
  4  6  1  0  0  0  0
  6  7  1  0  0  0  0
  7  8  1  0  0  0  0
  8  9  1  0  0  0  0
  4 10  1  0  0  0  0
  9 10  1  0  0  0  0
  1 11  1  0  0  0  0
  2 12  1  0  0  0  0
  2 13  1  0  0  0  0
  3 14  1  0  0  0  0
  3 15  1  0  0  0  0
  5 16  1  0  0  0  0
  5 17  1  0  0  0  0
  5 18  1  0  0  0  0
  6 19  1  0  0  0  0
  6 20  1  0  0  0  0
  7 21  1  0  0  0  0
  7 22  1  0  0  0  0
  9 23  1  0  0  0  0
  9 24  1  0  0  0  0
 10 25  1  0  0  0  0
 10 26  1  0  0  0  0
M  CHG  1   1   1
M  END
