 xtb: 6.7.1 (edcfbbe)
          12202407123D

 25 25  0     0  0            999 V2000
    1.1475   -0.0868   -0.1562 O   0  0  0  0  0  0  0  0  0  0  0  0
    0.4908    0.9897   -0.7929 C   0  0  0  0  0  0  0  0  0  0  0  0
    1.1281    2.3144   -0.3635 C   0  0  0  0  0  0  0  0  0  0  0  0
    2.6664    2.2726   -0.4232 C   0  0  0  0  0  0  0  0  0  0  0  0
    3.1562    1.9776   -1.7994 C   0  0  0  0  0  0  0  0  0  0  0  0
    3.3020    0.6598   -2.2459 C   0  0  0  0  0  0  0  0  0  0  0  0
    3.7290    0.4215   -3.5411 C   0  0  0  0  0  0  0  0  0  0  0  0
    4.0083    1.4892   -4.3731 C   0  0  0  0  0  0  0  0  0  0  0  0
    3.8637    2.7450   -3.9423 N   0  0  0  0  0  0  0  0  0  0  0  0
    3.4478    2.9943   -2.6933 C   0  0  0  0  0  0  0  0  0  0  0  0
    4.1708    3.8612   -4.8100 C   0  0  0  0  0  0  0  0  0  0  0  0
    0.5117   -0.7636    0.0906 H   0  0  0  0  0  0  0  0  0  0  0  0
    0.5730    0.8671   -1.8851 H   0  0  0  0  0  0  0  0  0  0  0  0
   -0.5726    1.0174   -0.5404 H   0  0  0  0  0  0  0  0  0  0  0  0
    0.7391    3.1143   -0.9944 H   0  0  0  0  0  0  0  0  0  0  0  0
    0.8500    2.5223    0.6692 H   0  0  0  0  0  0  0  0  0  0  0  0
    3.0551    3.2300   -0.0769 H   0  0  0  0  0  0  0  0  0  0  0  0
    2.9968    1.4837    0.2518 H   0  0  0  0  0  0  0  0  0  0  0  0
    3.0702   -0.1514   -1.5712 H   0  0  0  0  0  0  0  0  0  0  0  0
    3.8509   -0.5842   -3.9104 H   0  0  0  0  0  0  0  0  0  0  0  0
    4.3496    1.3430   -5.3866 H   0  0  0  0  0  0  0  0  0  0  0  0
    3.3540    4.0323   -2.4073 H   0  0  0  0  0  0  0  0  0  0  0  0
    3.3417    4.5688   -4.8215 H   0  0  0  0  0  0  0  0  0  0  0  0
    5.0610    4.3804   -4.4505 H   0  0  0  0  0  0  0  0  0  0  0  0
    4.3540    3.5169   -5.8251 H   0  0  0  0  0  0  0  0  0  0  0  0
  1  2  1  0  0  0  0
  2  3  1  0  0  0  0
  3  4  1  0  0  0  0
  4  5  1  0  0  0  0
  5  6  4  0  0  0  0
  6  7  4  0  0  0  0
  7  8  4  0  0  0  0
  8  9  4  0  0  0  0
  5 10  4  0  0  0  0
  9 10  4  0  0  0  0
  9 11  1  0  0  0  0
  1 12  1  0  0  0  0
  2 13  1  0  0  0  0
  2 14  1  0  0  0  0
  3 15  1  0  0  0  0
  3 16  1  0  0  0  0
  4 17  1  0  0  0  0
  4 18  1  0  0  0  0
  6 19  1  0  0  0  0
  7 20  1  0  0  0  0
  8 21  1  0  0  0  0
 10 22  1  0  0  0  0
 11 23  1  0  0  0  0
 11 24  1  0  0  0  0
 11 25  1  0  0  0  0
M  CHG  1   1   1
M  END
