34

C          2.58084        1.17184        0.37236
C          1.29557        0.40441        0.26061
C          1.28611       -0.98804        0.25526
C          0.08026       -1.68670        0.14442
C         -1.14890       -1.00828        0.04838
C         -1.14915        0.40485        0.07981
C          0.07858        1.08859        0.18241
C         -2.40075        1.24097       -0.00373
C         -2.42476       -1.79064       -0.13640
O         -3.49453       -1.22473       -0.35295
C         -2.37863       -3.31042       -0.17483
N         -1.92098       -3.84443       -1.47467
C         -1.91261       -3.18180       -2.69868
C         -1.43922       -4.06777       -3.62400
N         -1.21063       -5.25836       -2.95559
C         -1.53522       -5.11599       -1.66263
C         -0.74677       -6.49970       -3.56306
H          2.64563        1.91915       -0.42543
H          2.63581        1.67453        1.34285
H          3.45001        0.51261        0.27777
H          2.22176       -1.53988        0.33050
H          0.15330       -2.76870        0.12481
H          0.08875        2.17928        0.19989
H         -2.18029        2.30815        0.11107
H         -2.87945        1.11708       -0.98010
H         -3.09505        0.97567        0.79966
H         -1.75616       -3.70727        0.63231
H         -3.39271       -3.69215       -0.00556
H         -2.24167       -2.15741       -2.76692
H         -1.24972       -4.00885       -4.68238
H         -1.49146       -5.89037       -0.90494
H         -0.20028       -7.08709       -2.82055
H         -1.61465       -7.06352       -3.91493
H         -0.08386       -6.27554       -4.40311
