 xtb: 6.7.1 (edcfbbe)
          12202407123D

 48 50  0     0  0            999 V2000
    1.9895   -1.1115    0.6286 C   0  0  0  0  0  0  0  0  0  0  0  0
    0.6126   -0.9201    1.2520 C   0  0  0  0  0  0  0  0  0  0  0  0
    0.6676   -0.0613    2.5116 C   0  0  0  0  0  0  0  0  0  0  0  0
   -0.6649    0.0009    3.2558 C   0  0  0  0  0  0  0  0  0  0  0  0
   -1.5525   -0.7905    3.2492 O   0  0  0  0  0  0  0  0  0  0  0  0
   -0.7326    1.1764    3.9340 O   0  0  0  0  0  0  0  0  0  0  0  0
    0.4704    1.9068    3.7448 C   0  0  0  0  0  0  0  0  0  0  0  0
    0.9993    1.4345    2.3862 C   0  0  0  0  0  0  0  0  0  0  0  0
    0.2167    2.0687    1.2138 C   0  0  0  0  0  0  0  0  0  0  0  0
    0.0821    3.5430    1.3301 C   0  0  0  0  0  0  0  0  0  0  0  0
    0.9889    4.5338    1.0734 C   0  0  0  0  0  0  0  0  0  0  0  0
    0.3964    5.7276    1.3513 N   0  0  0  0  0  0  0  0  0  0  0  0
   -0.8412    5.4835    1.7618 C   0  0  0  0  0  0  0  0  0  0  0  0
   -1.0598    4.1684    1.7665 N   0  0  0  0  0  0  0  0  0  0  0  0
   -2.2947    3.5293    2.1452 C   0  0  0  0  0  0  0  0  0  0  0  0
    1.0165    7.0252    1.1597 C   0  0  0  0  0  0  0  0  0  0  0  0
    1.4331    7.1883   -0.2829 C   0  0  0  0  0  0  0  0  0  0  0  0
    2.7718    7.1523   -0.6455 C   0  0  0  0  0  0  0  0  0  0  0  0
    3.1384    7.2881   -1.9722 C   0  0  0  0  0  0  0  0  0  0  0  0
    2.1801    7.4532   -2.9651 C   0  0  0  0  0  0  0  0  0  0  0  0
    0.8388    7.4797   -2.5930 C   0  0  0  0  0  0  0  0  0  0  0  0
    0.4673    7.3491   -1.2696 C   0  0  0  0  0  0  0  0  0  0  0  0
    2.5732    7.6243   -4.3955 C   0  0  0  0  0  0  0  0  0  0  0  0
    2.4179   -0.1619    0.3150 H   0  0  0  0  0  0  0  0  0  0  0  0
    1.9166   -1.7554   -0.2429 H   0  0  0  0  0  0  0  0  0  0  0  0
    2.6697   -1.5773    1.3371 H   0  0  0  0  0  0  0  0  0  0  0  0
   -0.0716   -0.4899    0.5201 H   0  0  0  0  0  0  0  0  0  0  0  0
    0.2031   -1.8896    1.5399 H   0  0  0  0  0  0  0  0  0  0  0  0
    1.3865   -0.5182    3.2035 H   0  0  0  0  0  0  0  0  0  0  0  0
    1.1771    1.6546    4.5437 H   0  0  0  0  0  0  0  0  0  0  0  0
    0.2397    2.9705    3.8118 H   0  0  0  0  0  0  0  0  0  0  0  0
    2.0647    1.6351    2.2821 H   0  0  0  0  0  0  0  0  0  0  0  0
    0.7362    1.8328    0.2845 H   0  0  0  0  0  0  0  0  0  0  0  0
   -0.7775    1.6227    1.1717 H   0  0  0  0  0  0  0  0  0  0  0  0
    1.9920    4.4702    0.7049 H   0  0  0  0  0  0  0  0  0  0  0  0
   -1.5567    6.2281    2.0519 H   0  0  0  0  0  0  0  0  0  0  0  0
   -2.1187    2.7623    2.9014 H   0  0  0  0  0  0  0  0  0  0  0  0
   -2.9760    4.2734    2.5510 H   0  0  0  0  0  0  0  0  0  0  0  0
   -2.7620    3.0634    1.2761 H   0  0  0  0  0  0  0  0  0  0  0  0
    1.8896    7.0956    1.8139 H   0  0  0  0  0  0  0  0  0  0  0  0
    0.2947    7.7923    1.4476 H   0  0  0  0  0  0  0  0  0  0  0  0
    3.5341    7.0333    0.1110 H   0  0  0  0  0  0  0  0  0  0  0  0
    4.1843    7.2687   -2.2383 H   0  0  0  0  0  0  0  0  0  0  0  0
    0.0802    7.6105   -3.3498 H   0  0  0  0  0  0  0  0  0  0  0  0
   -0.5792    7.3814   -0.9998 H   0  0  0  0  0  0  0  0  0  0  0  0
    2.5383    8.6808   -4.6615 H   0  0  0  0  0  0  0  0  0  0  0  0
    3.5836    7.2652   -4.5708 H   0  0  0  0  0  0  0  0  0  0  0  0
    1.8870    7.0954   -5.0530 H   0  0  0  0  0  0  0  0  0  0  0  0
  1  2  1  0  0  0  0
  2  3  1  0  0  0  0
  3  4  1  0  0  0  0
  4  5  2  0  0  0  0
  4  6  1  0  0  0  0
  6  7  1  0  0  0  0
  3  8  1  0  0  0  0
  7  8  1  0  0  0  0
  8  9  1  0  0  0  0
  9 10  1  0  0  0  0
 10 11  2  0  0  0  0
 11 12  4  0  0  0  0
 12 13  4  0  0  0  0
 10 14  1  0  0  0  0
 13 14  4  0  0  0  0
 14 15  1  0  0  0  0
 12 16  1  0  0  0  0
 16 17  1  0  0  0  0
 17 18  4  0  0  0  0
 18 19  4  0  0  0  0
 19 20  4  0  0  0  0
 20 21  4  0  0  0  0
 17 22  4  0  0  0  0
 21 22  4  0  0  0  0
 20 23  1  0  0  0  0
  1 24  1  0  0  0  0
  1 25  1  0  0  0  0
  1 26  1  0  0  0  0
  2 27  1  0  0  0  0
  2 28  1  0  0  0  0
  3 29  1  0  0  0  0
  7 30  1  0  0  0  0
  7 31  1  0  0  0  0
  8 32  1  0  0  0  0
  9 33  1  0  0  0  0
  9 34  1  0  0  0  0
 11 35  1  0  0  0  0
 13 36  1  0  0  0  0
 15 37  1  0  0  0  0
 15 38  1  0  0  0  0
 15 39  1  0  0  0  0
 16 40  1  0  0  0  0
 16 41  1  0  0  0  0
 18 42  1  0  0  0  0
 19 43  1  0  0  0  0
 21 44  1  0  0  0  0
 22 45  1  0  0  0  0
 23 46  1  0  0  0  0
 23 47  1  0  0  0  0
 23 48  1  0  0  0  0
M  CHG  1   1   1
M  END
