 xtb: 6.7.1 (edcfbbe)
          12202407133D

 45 45  0     0  0            999 V2000
    0.7177    0.6069    0.1566 C   0  0  0  0  0  0  0  0  0  0  0  0
    0.7865   -0.5118    1.1892 C   0  0  0  0  0  0  0  0  0  0  0  0
    1.2049    0.0148    2.5636 N   0  0  0  0  0  0  0  0  0  0  0  0
    0.4235    1.1998    2.9613 C   0  0  0  0  0  0  0  0  0  0  0  0
    1.0417   -1.0238    3.6008 C   0  0  0  0  0  0  0  0  0  0  0  0
    2.6368    0.3755    2.5310 C   0  0  0  0  0  0  0  0  0  0  0  0
   -0.5413   -1.2772    1.2396 C   0  0  0  0  0  0  0  0  0  0  0  0
   -1.0349   -1.8389   -0.1149 C   0  0  0  0  0  0  0  0  0  0  0  0
   -0.0086   -2.7998   -0.7201 C   0  0  0  0  0  0  0  0  0  0  0  0
   -0.3137   -3.3066   -2.1318 C   0  0  0  0  0  0  0  0  0  0  0  0
   -1.4955   -4.2668   -2.3108 C   0  0  0  0  0  0  0  0  0  0  0  0
   -1.6464   -5.3361   -1.2221 C   0  0  0  0  0  0  0  0  0  0  0  0
   -2.7039   -5.0238   -0.1609 C   0  0  0  0  0  0  0  0  0  0  0  0
   -2.4074   -3.8622    0.7902 C   0  0  0  0  0  0  0  0  0  0  0  0
   -2.4138   -2.4795    0.1218 C   0  0  0  0  0  0  0  0  0  0  0  0
   -0.1921    1.1923    0.2620 H   0  0  0  0  0  0  0  0  0  0  0  0
    0.7072    0.1577   -0.8323 H   0  0  0  0  0  0  0  0  0  0  0  0
    1.5752    1.2729    0.1857 H   0  0  0  0  0  0  0  0  0  0  0  0
    1.5831   -1.2079    0.9120 H   0  0  0  0  0  0  0  0  0  0  0  0
   -0.6413    0.9847    2.9100 H   0  0  0  0  0  0  0  0  0  0  0  0
    0.6713    1.4769    3.9846 H   0  0  0  0  0  0  0  0  0  0  0  0
    0.6470    2.0422    2.3120 H   0  0  0  0  0  0  0  0  0  0  0  0
    1.5014   -1.9560    3.2776 H   0  0  0  0  0  0  0  0  0  0  0  0
    1.5272   -0.7004    4.5205 H   0  0  0  0  0  0  0  0  0  0  0  0
   -0.0100   -1.1952    3.8147 H   0  0  0  0  0  0  0  0  0  0  0  0
    3.2422   -0.5079    2.3357 H   0  0  0  0  0  0  0  0  0  0  0  0
    2.8381    1.1133    1.7590 H   0  0  0  0  0  0  0  0  0  0  0  0
    2.9348    0.7966    3.4898 H   0  0  0  0  0  0  0  0  0  0  0  0
   -0.4593   -2.1320    1.9088 H   0  0  0  0  0  0  0  0  0  0  0  0
   -1.3247   -0.6177    1.6177 H   0  0  0  0  0  0  0  0  0  0  0  0
   -1.1870   -1.0077   -0.8092 H   0  0  0  0  0  0  0  0  0  0  0  0
    0.9536   -2.2851   -0.7914 H   0  0  0  0  0  0  0  0  0  0  0  0
    0.1325   -3.6503   -0.0545 H   0  0  0  0  0  0  0  0  0  0  0  0
    0.5876   -3.8233   -2.4710 H   0  0  0  0  0  0  0  0  0  0  0  0
   -0.4606   -2.4497   -2.7936 H   0  0  0  0  0  0  0  0  0  0  0  0
   -1.3434   -4.7634   -3.2714 H   0  0  0  0  0  0  0  0  0  0  0  0
   -2.4288   -3.7125   -2.4026 H   0  0  0  0  0  0  0  0  0  0  0  0
   -0.6830   -5.5306   -0.7481 H   0  0  0  0  0  0  0  0  0  0  0  0
   -1.9520   -6.2691   -1.6992 H   0  0  0  0  0  0  0  0  0  0  0  0
   -2.8375   -5.9211    0.4483 H   0  0  0  0  0  0  0  0  0  0  0  0
   -3.6553   -4.8312   -0.6614 H   0  0  0  0  0  0  0  0  0  0  0  0
   -1.4594   -4.0480    1.2975 H   0  0  0  0  0  0  0  0  0  0  0  0
   -3.1817   -3.8771    1.5603 H   0  0  0  0  0  0  0  0  0  0  0  0
   -2.9974   -1.7878    0.7348 H   0  0  0  0  0  0  0  0  0  0  0  0
   -2.9349   -2.5508   -0.8291 H   0  0  0  0  0  0  0  0  0  0  0  0
  1  2  1  0  0  0  0
  2  3  1  0  0  0  0
  3  4  1  0  0  0  0
  3  5  1  0  0  0  0
  3  6  1  0  0  0  0
  2  7  1  0  0  0  0
  7  8  1  0  0  0  0
  8  9  1  0  0  0  0
  9 10  1  0  0  0  0
 10 11  1  0  0  0  0
 11 12  1  0  0  0  0
 12 13  1  0  0  0  0
 13 14  1  0  0  0  0
  8 15  1  0  0  0  0
 14 15  1  0  0  0  0
  1 16  1  0  0  0  0
  1 17  1  0  0  0  0
  1 18  1  0  0  0  0
  2 19  1  0  0  0  0
  4 20  1  0  0  0  0
  4 21  1  0  0  0  0
  4 22  1  0  0  0  0
  5 23  1  0  0  0  0
  5 24  1  0  0  0  0
  5 25  1  0  0  0  0
  6 26  1  0  0  0  0
  6 27  1  0  0  0  0
  6 28  1  0  0  0  0
  7 29  1  0  0  0  0
  7 30  1  0  0  0  0
  8 31  1  0  0  0  0
  9 32  1  0  0  0  0
  9 33  1  0  0  0  0
 10 34  1  0  0  0  0
 10 35  1  0  0  0  0
 11 36  1  0  0  0  0
 11 37  1  0  0  0  0
 12 38  1  0  0  0  0
 12 39  1  0  0  0  0
 13 40  1  0  0  0  0
 13 41  1  0  0  0  0
 14 42  1  0  0  0  0
 14 43  1  0  0  0  0
 15 44  1  0  0  0  0
 15 45  1  0  0  0  0
M  CHG  1   1   1
M  END
