45

C          0.80899        0.62433        0.12013
C          0.78425       -0.50904        1.15334
N          1.20026        0.02045        2.58450
C          0.42523        1.26552        3.00901
C          0.99369       -1.05940        3.65651
C          2.70063        0.35416        2.59037
C         -0.58706       -1.22788        1.18786
C         -1.10383       -1.82083       -0.15854
C         -0.05219       -2.72690       -0.82408
C         -0.41114       -3.29298       -2.19894
C         -1.51361       -4.34786       -2.29817
C         -1.56603       -5.36856       -1.16309
C         -2.63715       -5.07951       -0.10949
C         -2.39269       -3.87133        0.79525
C         -2.46468       -2.51088        0.09045
H         -0.00493        1.33827        0.28268
H          0.69030        0.22965       -0.89383
H          1.75379        1.17267        0.12170
H          1.56047       -1.24133        0.90327
H         -0.64429        1.04969        2.96546
H          0.71604        1.51752        4.03379
H          0.68619        2.09209        2.34349
H          1.45698       -1.98620        3.30592
H          1.46638       -0.72499        4.58534
H         -0.07833       -1.18673        3.82889
H          3.25301       -0.53866        2.28236
H          2.88830        1.18442        1.90757
H          2.98686        0.64591        3.60568
H         -0.53647       -2.05368        1.90309
H         -1.34813       -0.53348        1.56420
H         -1.30144       -0.97767       -0.83332
H          0.85735       -2.13666       -0.98666
H          0.25254       -3.52845       -0.14363
H          0.50529       -3.74530       -2.60247
H         -0.65382       -2.46771       -2.88030
H         -1.33829       -4.89488       -3.23495
H         -2.48899       -3.87158       -2.44063
H         -0.58519       -5.51011       -0.69681
H         -1.82122       -6.33982       -1.60797
H         -2.71014       -5.96413        0.53678
H         -3.61568       -4.98186       -0.59588
H         -1.45318       -4.00353        1.34130
H         -3.18102       -3.88634        1.55978
H         -3.07082       -1.84040        0.71550
H         -3.02811       -2.58376       -0.84449
