39

C          1.82243       -0.51614        0.69715
C          1.02105        0.00297        1.88273
C          1.03170        1.52939        1.99708
C          0.26965        2.26283        0.89277
N         -1.18427        2.22040        1.09167
N         -1.73091        3.16322        1.84896
N         -3.01919        2.85107        1.83198
C         -3.32951        1.72922        1.06009
C         -2.09787        1.31987        0.54321
C         -1.97389        0.23745       -0.32088
C         -3.16676       -0.43050       -0.63584
C         -4.40900       -0.02317       -0.10645
C         -4.51997        1.07514        0.76016
C         -3.96201        3.73634        2.52672
C         -3.95973        3.54736        4.04247
C         -2.74256        4.11690        4.77793
C         -2.55487        5.61451        4.58353
H          1.39594       -0.19401       -0.25631
H          1.83500       -1.61080        0.70169
H          2.85918       -0.16743        0.74331
H         -0.00509       -0.37386        1.83260
H          1.45982       -0.41418        2.79739
H          0.61195        1.80755        2.97153
H          2.07347        1.87255        1.99369
H          0.56836        3.31915        0.89600
H          0.50791        1.87824       -0.10298
H         -1.02003       -0.07190       -0.72852
H         -3.13560       -1.28853       -1.30942
H         -5.30757       -0.57706       -0.38347
H         -5.47381        1.39172        1.16384
H         -3.74677        4.77021        2.23778
H         -4.96809        3.52041        2.14920
H         -4.85935        4.02560        4.44974
H         -4.03931        2.47839        4.27433
H         -2.87050        3.92255        5.84991
H         -1.83034        3.59110        4.47824
H         -3.47139        6.16172        4.82602
H         -1.75808        5.98212        5.23811
H         -2.26975        5.85405        3.55501
