37

O          0.78931       -0.72188       -0.10316
C         -0.01421       -1.23287        0.86512
O          0.46216       -1.87800        1.78170
C         -1.47877       -0.87133        0.66700
N         -1.76569        0.52689        1.01792
C         -1.25830        1.59655        0.41731
N         -0.44922        1.55879       -0.63962
N         -1.68700        2.69894        1.01585
C         -2.60647        2.34300        2.00329
C         -2.64264        0.94414        2.01574
C         -3.45220        0.23232        2.89882
C         -4.23872        0.99662        3.77080
C         -4.20543        2.40284        3.75609
C         -3.38220        3.11021        2.87022
C         -1.21957        4.05590        0.75304
C          0.00209        4.32932        1.59604
C          1.27403        3.88654        1.19764
C          2.39543        4.12493        1.99507
C          2.26236        4.81064        3.19887
C          1.00912        5.25873        3.60731
C         -0.11451        5.01810        2.81359
H          1.68194       -1.05485        0.16196
H         -1.75419       -1.03747       -0.38001
H         -2.08113       -1.55731        1.26841
H         -0.02386        0.68127       -0.92462
H         -0.17200        2.39239       -1.13111
H         -3.48103       -0.84957        2.91585
H         -4.89402        0.48971        4.48012
H         -4.83635        2.95414        4.45413
H         -3.35867        4.19178        2.86060
H         -0.98903        4.17383       -0.31077
H         -2.01816        4.77374        0.97038
H          1.41896        3.35721        0.26185
H          3.37752        3.78056        1.67824
H          3.13655        4.99987        3.81813
H          0.90928        5.79877        4.54657
H         -1.07906        5.38264        3.15941
