71

C          1.16440        0.39183       -0.73498
C          1.24442       -1.12700       -0.72592
C          1.60928       -1.70937        0.64228
C          0.61713       -1.41026        1.77191
C         -0.81896       -1.88626        1.52749
C         -0.97710       -3.39369        1.29849
C         -0.53859       -4.28247        2.46864
C         -1.28926       -4.04986        3.78506
C         -2.80799       -4.24000        3.71101
C         -3.26853       -5.65399        3.33731
C         -2.90004       -6.75211        4.34343
C         -3.38158       -6.52168        5.78175
C         -4.88327       -6.25755        5.93449
C         -5.78666       -7.45588        5.61491
C         -5.82166       -8.55146        6.69404
C         -6.41159       -8.11658        8.04271
N         -7.91849       -8.41520        8.22848
C         -8.25965       -9.93111        8.26763
C         -7.47123      -10.78904        9.26820
O         -7.86647      -10.52978       10.62616
C         -6.87367      -10.16085       11.48191
O         -5.73394       -9.87866       11.13797
C         -7.37355      -10.08829       12.89210
C         -8.36274       -7.73231        9.52953
C         -8.75259       -7.78492        7.10958
H          0.34379        0.75491       -0.10940
H          0.98914        0.75304       -1.75346
H          2.09776        0.83589       -0.37468
H          0.29705       -1.54606       -1.08173
H          2.00904       -1.43826       -1.44795
H          1.73077       -2.79411        0.54033
H          2.59347       -1.32454        0.93810
H          0.99801       -1.85956        2.69670
H          0.59766       -0.32996        1.95910
H         -1.43730       -1.57787        2.37863
H         -1.23364       -1.35747        0.66123
H         -2.02641       -3.60019        1.05747
H         -0.41247       -3.68890        0.40653
H         -0.64986       -5.33107        2.16877
H          0.53352       -4.14306        2.65032
H         -0.87362       -4.71933        4.54723
H         -1.08368       -3.03444        4.14399
H         -3.24074       -3.95455        4.67666
H         -3.23066       -3.53345        2.98748
H         -4.35680       -5.64037        3.20367
H         -2.86254       -5.92783        2.35671
H         -3.29962       -7.70493        3.97659
H         -1.81061       -6.87696        4.35940
H         -3.09218       -7.38438        6.39274
H         -2.83794       -5.66729        6.20288
H         -5.06630       -5.90318        6.95340
H         -5.17643       -5.42275        5.28851
H         -6.79748       -7.07774        5.43994
H         -5.47669       -7.90975        4.66688
H         -6.34596       -9.42495        6.29484
H         -4.79134       -8.88438        6.86890
H         -5.88954       -8.62788        8.85487
H         -6.28968       -7.04356        8.21383
H         -9.33243       -9.99337        8.48697
H         -8.09633      -10.31532        7.25558
H         -7.73580      -11.83699        9.08343
H         -6.39235      -10.72146        9.10162
H         -8.46488      -10.15915       12.92089
H         -6.94614      -10.90769       13.47382
H         -7.08970       -9.12400       13.32239
H         -7.65877       -7.98070       10.32252
H         -8.34970       -6.64893        9.37102
H         -9.37441       -8.06622        9.77554
H         -8.48245       -6.72826        7.02693
H         -8.55438       -8.31837        6.17669
H         -9.81074       -7.88523        7.37108
