 xtb: 6.7.1 (edcfbbe)
          12202407133D

 64 65  0     0  0            999 V2000
    1.9158   -1.5062    0.6831 C   0  0  0  0  0  0  0  0  0  0  0  0
    1.3696   -1.6762    2.0959 C   0  0  0  0  0  0  0  0  0  0  0  0
    1.5032   -0.4158    2.9532 C   0  0  0  0  0  0  0  0  0  0  0  0
    0.6696    0.7752    2.4754 C   0  0  0  0  0  0  0  0  0  0  0  0
   -0.8411    0.5977    2.6512 C   0  0  0  0  0  0  0  0  0  0  0  0
   -1.3139    0.7361    4.1015 C   0  0  0  0  0  0  0  0  0  0  0  0
   -1.3562    2.1823    4.5992 C   0  0  0  0  0  0  0  0  0  0  0  0
   -2.4965    3.0148    3.9996 C   0  0  0  0  0  0  0  0  0  0  0  0
   -3.7874    2.6119    4.5114 N   0  0  0  0  0  0  0  0  0  0  0  0
   -4.3334    3.0454    5.6435 C   0  0  0  0  0  0  0  0  0  0  0  0
   -5.5127    2.4777    5.8665 N   0  0  0  0  0  0  0  0  0  0  0  0
   -5.7555    1.6012    4.8304 C   0  0  0  0  0  0  0  0  0  0  0  0
   -4.6528    1.6909    3.9576 C   0  0  0  0  0  0  0  0  0  0  0  0
   -4.6005    0.9394    2.7883 C   0  0  0  0  0  0  0  0  0  0  0  0
   -5.6653    0.1015    2.5341 C   0  0  0  0  0  0  0  0  0  0  0  0
   -6.7554    0.0073    3.4053 C   0  0  0  0  0  0  0  0  0  0  0  0
   -6.8237    0.7520    4.5633 C   0  0  0  0  0  0  0  0  0  0  0  0
   -6.3621    2.6816    7.0160 C   0  0  0  0  0  0  0  0  0  0  0  0
   -6.1086    1.6191    8.0911 C   0  0  0  0  0  0  0  0  0  0  0  0
   -4.7270    1.7174    8.7387 C   0  0  0  0  0  0  0  0  0  0  0  0
   -4.4591    3.0205    9.4976 C   0  0  0  0  0  0  0  0  0  0  0  0
   -5.4749    3.3513   10.5939 C   0  0  0  0  0  0  0  0  0  0  0  0
   -5.6190    2.2875   11.6841 C   0  0  0  0  0  0  0  0  0  0  0  0
   -4.3431    2.0043   12.4789 C   0  0  0  0  0  0  0  0  0  0  0  0
   -3.8420    3.2125   13.2612 C   0  0  0  0  0  0  0  0  0  0  0  0
    1.3231   -0.7981    0.1094 H   0  0  0  0  0  0  0  0  0  0  0  0
    1.8992   -2.4582    0.1584 H   0  0  0  0  0  0  0  0  0  0  0  0
    2.9433   -1.1513    0.7130 H   0  0  0  0  0  0  0  0  0  0  0  0
    0.3249   -1.9904    2.0465 H   0  0  0  0  0  0  0  0  0  0  0  0
    1.9231   -2.4774    2.5898 H   0  0  0  0  0  0  0  0  0  0  0  0
    1.2331   -0.6618    3.9827 H   0  0  0  0  0  0  0  0  0  0  0  0
    2.5528   -0.1152    2.9581 H   0  0  0  0  0  0  0  0  0  0  0  0
    0.9956    1.6667    3.0155 H   0  0  0  0  0  0  0  0  0  0  0  0
    0.8789    0.9488    1.4198 H   0  0  0  0  0  0  0  0  0  0  0  0
   -1.3487    1.3340    2.0231 H   0  0  0  0  0  0  0  0  0  0  0  0
   -1.1258   -0.3888    2.2847 H   0  0  0  0  0  0  0  0  0  0  0  0
   -2.3021    0.2825    4.2120 H   0  0  0  0  0  0  0  0  0  0  0  0
   -0.6339    0.1761    4.7436 H   0  0  0  0  0  0  0  0  0  0  0  0
   -1.4512    2.1921    5.6875 H   0  0  0  0  0  0  0  0  0  0  0  0
   -0.4186    2.6772    4.3474 H   0  0  0  0  0  0  0  0  0  0  0  0
   -2.3493    4.0686    4.2463 H   0  0  0  0  0  0  0  0  0  0  0  0
   -2.5137    2.9119    2.9144 H   0  0  0  0  0  0  0  0  0  0  0  0
   -3.8843    3.7806    6.2850 H   0  0  0  0  0  0  0  0  0  0  0  0
   -3.7659    1.0004    2.1103 H   0  0  0  0  0  0  0  0  0  0  0  0
   -5.6601   -0.4991    1.6387 H   0  0  0  0  0  0  0  0  0  0  0  0
   -7.5624   -0.6646    3.1613 H   0  0  0  0  0  0  0  0  0  0  0  0
   -7.6675    0.6769    5.2292 H   0  0  0  0  0  0  0  0  0  0  0  0
   -6.1720    3.6778    7.4171 H   0  0  0  0  0  0  0  0  0  0  0  0
   -7.3998    2.6327    6.6800 H   0  0  0  0  0  0  0  0  0  0  0  0
   -6.8773    1.7282    8.8545 H   0  0  0  0  0  0  0  0  0  0  0  0
   -6.2230    0.6287    7.6451 H   0  0  0  0  0  0  0  0  0  0  0  0
   -4.6252    0.8823    9.4315 H   0  0  0  0  0  0  0  0  0  0  0  0
   -3.9542    1.5890    7.9736 H   0  0  0  0  0  0  0  0  0  0  0  0
   -3.4670    2.9468    9.9446 H   0  0  0  0  0  0  0  0  0  0  0  0
   -4.4267    3.8629    8.8003 H   0  0  0  0  0  0  0  0  0  0  0  0
   -5.1731    4.2917   11.0566 H   0  0  0  0  0  0  0  0  0  0  0  0
   -6.4565    3.5224   10.1455 H   0  0  0  0  0  0  0  0  0  0  0  0
   -6.3896    2.6267   12.3798 H   0  0  0  0  0  0  0  0  0  0  0  0
   -5.9734    1.3535   11.2424 H   0  0  0  0  0  0  0  0  0  0  0  0
   -4.5594    1.1974   13.1821 H   0  0  0  0  0  0  0  0  0  0  0  0
   -3.5554    1.6480   11.8121 H   0  0  0  0  0  0  0  0  0  0  0  0
   -4.6316    3.6075   13.8961 H   0  0  0  0  0  0  0  0  0  0  0  0
   -3.0060    2.9279   13.8951 H   0  0  0  0  0  0  0  0  0  0  0  0
   -3.5048    4.0044   12.5970 H   0  0  0  0  0  0  0  0  0  0  0  0
  1  2  1  0  0  0  0
  2  3  1  0  0  0  0
  3  4  1  0  0  0  0
  4  5  1  0  0  0  0
  5  6  1  0  0  0  0
  6  7  1  0  0  0  0
  7  8  1  0  0  0  0
  8  9  1  0  0  0  0
  9 10  4  0  0  0  0
 10 11  4  0  0  0  0
 11 12  1  0  0  0  0
  9 13  1  0  0  0  0
 12 13  4  0  0  0  0
 13 14  4  0  0  0  0
 14 15  4  0  0  0  0
 15 16  4  0  0  0  0
 12 17  4  0  0  0  0
 16 17  4  0  0  0  0
 11 18  1  0  0  0  0
 18 19  1  0  0  0  0
 19 20  1  0  0  0  0
 20 21  1  0  0  0  0
 21 22  1  0  0  0  0
 22 23  1  0  0  0  0
 23 24  1  0  0  0  0
 24 25  1  0  0  0  0
  1 26  1  0  0  0  0
  1 27  1  0  0  0  0
  1 28  1  0  0  0  0
  2 29  1  0  0  0  0
  2 30  1  0  0  0  0
  3 31  1  0  0  0  0
  3 32  1  0  0  0  0
  4 33  1  0  0  0  0
  4 34  1  0  0  0  0
  5 35  1  0  0  0  0
  5 36  1  0  0  0  0
  6 37  1  0  0  0  0
  6 38  1  0  0  0  0
  7 39  1  0  0  0  0
  7 40  1  0  0  0  0
  8 41  1  0  0  0  0
  8 42  1  0  0  0  0
 10 43  1  0  0  0  0
 14 44  1  0  0  0  0
 15 45  1  0  0  0  0
 16 46  1  0  0  0  0
 17 47  1  0  0  0  0
 18 48  1  0  0  0  0
 18 49  1  0  0  0  0
 19 50  1  0  0  0  0
 19 51  1  0  0  0  0
 20 52  1  0  0  0  0
 20 53  1  0  0  0  0
 21 54  1  0  0  0  0
 21 55  1  0  0  0  0
 22 56  1  0  0  0  0
 22 57  1  0  0  0  0
 23 58  1  0  0  0  0
 23 59  1  0  0  0  0
 24 60  1  0  0  0  0
 24 61  1  0  0  0  0
 25 62  1  0  0  0  0
 25 63  1  0  0  0  0
 25 64  1  0  0  0  0
M  CHG  1   1   1
M  END
