 xtb: 6.7.1 (edcfbbe)
          12202407133D

 22 22  0     0  0            999 V2000
    1.0550   -0.1076   -0.0786 C   0  0  0  0  0  0  0  0  0  0  0  0
   -0.0843   -0.1302   -0.0840 N   0  0  0  0  0  0  0  0  0  0  0  0
    2.5056   -0.0514   -0.0663 C   0  0  0  0  0  0  0  0  0  0  0  0
    3.1447   -1.3604    0.0449 N   0  0  0  0  0  0  0  0  0  0  0  0
    4.4780   -1.4205    0.2421 C   0  0  0  0  0  0  0  0  0  0  0  0
    5.0729   -2.6738    0.3465 C   0  0  0  0  0  0  0  0  0  0  0  0
    4.3231   -3.8275    0.2467 C   0  0  0  0  0  0  0  0  0  0  0  0
    2.9428   -3.7419    0.0316 C   0  0  0  0  0  0  0  0  0  0  0  0
    2.4004   -2.4748   -0.0628 C   0  0  0  0  0  0  0  0  0  0  0  0
    2.0965   -4.9558   -0.1035 C   0  0  0  0  0  0  0  0  0  0  0  0
    5.2767   -0.1732    0.3421 C   0  0  0  0  0  0  0  0  0  0  0  0
    2.8325    0.4421   -0.9917 H   0  0  0  0  0  0  0  0  0  0  0  0
    2.8040    0.5796    0.7801 H   0  0  0  0  0  0  0  0  0  0  0  0
    6.1375   -2.7303    0.5091 H   0  0  0  0  0  0  0  0  0  0  0  0
    4.7961   -4.7936    0.3321 H   0  0  0  0  0  0  0  0  0  0  0  0
    1.3409   -2.3408   -0.2272 H   0  0  0  0  0  0  0  0  0  0  0  0
    2.2705   -5.4193   -1.0748 H   0  0  0  0  0  0  0  0  0  0  0  0
    2.3583   -5.6894    0.6557 H   0  0  0  0  0  0  0  0  0  0  0  0
    1.0399   -4.7182   -0.0229 H   0  0  0  0  0  0  0  0  0  0  0  0
    5.1583    0.4509   -0.5434 H   0  0  0  0  0  0  0  0  0  0  0  0
    4.9823    0.4202    1.2086 H   0  0  0  0  0  0  0  0  0  0  0  0
    6.3305   -0.4126    0.4481 H   0  0  0  0  0  0  0  0  0  0  0  0
  1  2  3  0  0  0  0
  1  3  1  0  0  0  0
  3  4  1  0  0  0  0
  4  5  4  0  0  0  0
  5  6  4  0  0  0  0
  6  7  4  0  0  0  0
  7  8  4  0  0  0  0
  4  9  4  0  0  0  0
  8  9  4  0  0  0  0
  8 10  1  0  0  0  0
  5 11  1  0  0  0  0
  3 12  1  0  0  0  0
  3 13  1  0  0  0  0
  6 14  1  0  0  0  0
  7 15  1  0  0  0  0
  9 16  1  0  0  0  0
 10 17  1  0  0  0  0
 10 18  1  0  0  0  0
 10 19  1  0  0  0  0
 11 20  1  0  0  0  0
 11 21  1  0  0  0  0
 11 22  1  0  0  0  0
M  CHG  1   1   1
M  END
