 xtb: 6.7.1 (edcfbbe)
          12202407133D

 14 14  0     0  0            999 V2000
    0.9464    0.1418    0.0403 C   0  0  0  0  0  0  0  0  0  0  0  0
    0.4855    1.5096    0.0214 N   0  0  0  0  0  0  0  0  0  0  0  0
   -0.8236    1.7761   -0.1677 C   0  0  0  0  0  0  0  0  0  0  0  0
   -1.3180    2.9762   -0.1882 N   0  0  0  0  0  0  0  0  0  0  0  0
   -0.5115    4.0134   -0.0162 C   0  0  0  0  0  0  0  0  0  0  0  0
    0.8555    3.8335    0.1865 C   0  0  0  0  0  0  0  0  0  0  0  0
    1.3285    2.5350    0.1996 C   0  0  0  0  0  0  0  0  0  0  0  0
    0.5882   -0.3877   -0.8431 H   0  0  0  0  0  0  0  0  0  0  0  0
    0.5593   -0.3705    0.9234 H   0  0  0  0  0  0  0  0  0  0  0  0
    2.0335    0.1036    0.0613 H   0  0  0  0  0  0  0  0  0  0  0  0
   -1.4997    0.9425   -0.3099 H   0  0  0  0  0  0  0  0  0  0  0  0
   -0.9738    4.9906   -0.0441 H   0  0  0  0  0  0  0  0  0  0  0  0
    1.5256    4.6662    0.3275 H   0  0  0  0  0  0  0  0  0  0  0  0
    2.3753    2.3080    0.3512 H   0  0  0  0  0  0  0  0  0  0  0  0
  1  2  1  0  0  0  0
  2  3  4  0  0  0  0
  3  4  2  0  0  0  0
  4  5  4  0  0  0  0
  5  6  4  0  0  0  0
  2  7  4  0  0  0  0
  6  7  4  0  0  0  0
  1  8  1  0  0  0  0
  1  9  1  0  0  0  0
  1 10  1  0  0  0  0
  3 11  1  0  0  0  0
  5 12  1  0  0  0  0
  6 13  1  0  0  0  0
  7 14  1  0  0  0  0
M  CHG  1   1   1
M  END
