 xtb: 6.7.1 (edcfbbe)
          12202407133D

 16 16  0     0  0            999 V2000
    0.9056    0.0366    0.0763 C   0  0  0  0  0  0  0  0  0  0  0  0
    0.4632   -0.3192    1.3982 N   0  0  0  0  0  0  0  0  0  0  0  0
    0.0182    0.5114    2.3345 C   0  0  0  0  0  0  0  0  0  0  0  0
   -0.2778   -0.1755    3.4392 N   0  0  0  0  0  0  0  0  0  0  0  0
   -0.0081   -1.4990    3.1958 C   0  0  0  0  0  0  0  0  0  0  0  0
    0.4588   -1.5823    1.9090 C   0  0  0  0  0  0  0  0  0  0  0  0
   -0.2596   -2.6969    4.3675 Cl  0  0  0  0  0  0  0  0  0  0  0  0
   -0.7906    0.3476    4.6760 C   0  0  0  0  0  0  0  0  0  0  0  0
    0.5533    1.0336   -0.1790 H   0  0  0  0  0  0  0  0  0  0  0  0
    0.5179   -0.6777   -0.6489 H   0  0  0  0  0  0  0  0  0  0  0  0
    1.9960    0.0230    0.0264 H   0  0  0  0  0  0  0  0  0  0  0  0
   -0.0897    1.5737    2.2219 H   0  0  0  0  0  0  0  0  0  0  0  0
    0.7752   -2.4399    1.3511 H   0  0  0  0  0  0  0  0  0  0  0  0
   -1.7507   -0.1161    4.9050 H   0  0  0  0  0  0  0  0  0  0  0  0
   -0.0992    0.1228    5.4888 H   0  0  0  0  0  0  0  0  0  0  0  0
   -0.9183    1.4243    4.5972 H   0  0  0  0  0  0  0  0  0  0  0  0
  1  2  1  0  0  0  0
  2  3  4  0  0  0  0
  3  4  4  0  0  0  0
  4  5  1  0  0  0  0
  2  6  4  0  0  0  0
  5  6  2  0  0  0  0
  5  7  1  0  0  0  0
  4  8  1  0  0  0  0
  1  9  1  0  0  0  0
  1 10  1  0  0  0  0
  1 11  1  0  0  0  0
  3 12  1  0  0  0  0
  6 13  1  0  0  0  0
  8 14  1  0  0  0  0
  8 15  1  0  0  0  0
  8 16  1  0  0  0  0
M  CHG  1   1   1
M  END
