 xtb: 6.7.1 (edcfbbe)
          12202407133D

 22 22  0     0  0            999 V2000
    0.5786    0.0357   -1.0116 Br  0  0  0  0  0  0  0  0  0  0  0  0
    2.3321   -0.1529   -0.1367 C   0  0  0  0  0  0  0  0  0  0  0  0
    3.4479   -0.3826   -1.1448 C   0  0  0  0  0  0  0  0  0  0  0  0
    3.5293    0.6857   -2.2425 C   0  0  0  0  0  0  0  0  0  0  0  0
    3.7285    2.0124   -1.7054 N   0  0  0  0  0  0  0  0  0  0  0  0
    2.7439    2.9059   -1.4117 C   0  0  0  0  0  0  0  0  0  0  0  0
    3.3444    4.0132   -0.8938 C   0  0  0  0  0  0  0  0  0  0  0  0
    4.6863    3.7781   -0.8789 N   0  0  0  0  0  0  0  0  0  0  0  0
    4.8950    2.5612   -1.3720 C   0  0  0  0  0  0  0  0  0  0  0  0
    5.6865    4.6961   -0.4048 C   0  0  0  0  0  0  0  0  0  0  0  0
    2.4799    0.7560    0.4461 H   0  0  0  0  0  0  0  0  0  0  0  0
    2.2471   -1.0015    0.5393 H   0  0  0  0  0  0  0  0  0  0  0  0
    4.3919   -0.4329   -0.5967 H   0  0  0  0  0  0  0  0  0  0  0  0
    3.2967   -1.3418   -1.6417 H   0  0  0  0  0  0  0  0  0  0  0  0
    4.3557    0.4487   -2.9152 H   0  0  0  0  0  0  0  0  0  0  0  0
    2.5977    0.6895   -2.8129 H   0  0  0  0  0  0  0  0  0  0  0  0
    1.7071    2.7010   -1.5930 H   0  0  0  0  0  0  0  0  0  0  0  0
    2.9159    4.9311   -0.5462 H   0  0  0  0  0  0  0  0  0  0  0  0
    5.8551    2.0982   -1.4945 H   0  0  0  0  0  0  0  0  0  0  0  0
    5.5829    4.8428    0.6714 H   0  0  0  0  0  0  0  0  0  0  0  0
    6.6796    4.3065   -0.6162 H   0  0  0  0  0  0  0  0  0  0  0  0
    5.5691    5.6617   -0.8966 H   0  0  0  0  0  0  0  0  0  0  0  0
  1  2  1  0  0  0  0
  2  3  1  0  0  0  0
  3  4  1  0  0  0  0
  4  5  1  0  0  0  0
  5  6  4  0  0  0  0
  6  7  2  0  0  0  0
  7  8  4  0  0  0  0
  5  9  4  0  0  0  0
  8  9  4  0  0  0  0
  8 10  1  0  0  0  0
  2 11  1  0  0  0  0
  2 12  1  0  0  0  0
  3 13  1  0  0  0  0
  3 14  1  0  0  0  0
  4 15  1  0  0  0  0
  4 16  1  0  0  0  0
  6 17  1  0  0  0  0
  7 18  1  0  0  0  0
  9 19  1  0  0  0  0
 10 20  1  0  0  0  0
 10 21  1  0  0  0  0
 10 22  1  0  0  0  0
M  CHG  1   1   1
M  END
