32

N          1.09184        0.13791        0.04184
C          0.32772       -0.83597        0.98661
C          0.73363       -0.88967        2.46260
C          0.33336        0.25349        3.40057
C         -1.14961        0.55797        3.40250
F         -1.87274       -0.55589        3.62039
F         -1.45586        1.46766        4.34420
F         -1.52041        1.06342        2.20522
C          0.58495        1.58546        0.20769
C          1.10725        2.55290       -0.84672
C          0.69045       -0.33911       -1.38853
C          2.62712       -0.01910        0.13095
C          3.31024        0.83312        1.18980
H         -0.74208       -0.63966        0.86100
H          0.51093       -1.83951        0.58034
H          0.26021       -1.79515        2.86979
H          1.80483       -1.08897        2.55965
H          0.62682       -0.02856        4.41933
H          0.89355        1.16267        3.17167
H         -0.50797        1.55244        0.15187
H          0.87382        1.92550        1.20211
H          0.65006        2.36969       -1.82370
H          0.84042        3.57683       -0.56331
H          2.19277        2.51452       -0.96176
H          1.22424        0.26004       -2.13018
H          0.98294       -1.38845       -1.49547
H         -0.39187       -0.22318       -1.49732
H          2.83050       -1.08394        0.29072
H          3.03927        0.25389       -0.84743
H          2.94084        0.65616        2.19836
H          4.38163        0.60355        1.19736
H          3.22168        1.90238        0.98162
