 xtb: 6.7.1 (edcfbbe)
          12202407133D

 37 37  0     0  0            999 V2000
    0.4800   -1.4845    0.7863 C   0  0  0  0  0  0  0  0  0  0  0  0
    0.2561   -0.6553    2.0452 C   0  0  0  0  0  0  0  0  0  0  0  0
    1.0115    0.6749    2.0367 C   0  0  0  0  0  0  0  0  0  0  0  0
    0.6018    1.6382    0.9200 C   0  0  0  0  0  0  0  0  0  0  0  0
   -0.8752    2.0411    0.9335 C   0  0  0  0  0  0  0  0  0  0  0  0
   -1.3789    2.6679    2.2412 C   0  0  0  0  0  0  0  0  0  0  0  0
   -0.5867    3.8498    2.8070 C   0  0  0  0  0  0  0  0  0  0  0  0
   -1.0275    5.1445    2.3685 O   0  0  0  0  0  0  0  0  0  0  0  0
   -0.8012    5.4700    1.0617 C   0  0  0  0  0  0  0  0  0  0  0  0
    0.6334    5.8166    0.8359 N   0  0  0  0  0  0  0  0  0  0  0  0
    1.2404    6.5786    1.7519 C   0  0  0  0  0  0  0  0  0  0  0  0
    2.5669    6.9293    1.6150 C   0  0  0  0  0  0  0  0  0  0  0  0
    3.2738    6.4817    0.5052 C   0  0  0  0  0  0  0  0  0  0  0  0
    2.6213    5.6897   -0.4319 C   0  0  0  0  0  0  0  0  0  0  0  0
    1.2929    5.3698   -0.2363 C   0  0  0  0  0  0  0  0  0  0  0  0
    0.0584   -0.9996   -0.0908 H   0  0  0  0  0  0  0  0  0  0  0  0
    0.0046   -2.4559    0.8914 H   0  0  0  0  0  0  0  0  0  0  0  0
    1.5427   -1.6425    0.6177 H   0  0  0  0  0  0  0  0  0  0  0  0
   -0.8123   -0.4804    2.1818 H   0  0  0  0  0  0  0  0  0  0  0  0
    0.6014   -1.2282    2.9080 H   0  0  0  0  0  0  0  0  0  0  0  0
    0.8783    1.1626    3.0049 H   0  0  0  0  0  0  0  0  0  0  0  0
    2.0778    0.4655    1.9229 H   0  0  0  0  0  0  0  0  0  0  0  0
    1.2377    2.5292    0.9825 H   0  0  0  0  0  0  0  0  0  0  0  0
    0.8128    1.1718   -0.0436 H   0  0  0  0  0  0  0  0  0  0  0  0
   -1.0622    2.7027    0.0823 H   0  0  0  0  0  0  0  0  0  0  0  0
   -1.4777    1.1495    0.7574 H   0  0  0  0  0  0  0  0  0  0  0  0
   -2.4149    2.9869    2.1099 H   0  0  0  0  0  0  0  0  0  0  0  0
   -1.3791    1.8911    3.0055 H   0  0  0  0  0  0  0  0  0  0  0  0
   -0.7399    3.9016    3.8859 H   0  0  0  0  0  0  0  0  0  0  0  0
    0.4867    3.7392    2.6162 H   0  0  0  0  0  0  0  0  0  0  0  0
   -1.0636    4.6768    0.3533 H   0  0  0  0  0  0  0  0  0  0  0  0
   -1.3942    6.3679    0.8467 H   0  0  0  0  0  0  0  0  0  0  0  0
    0.6356    6.8820    2.5958 H   0  0  0  0  0  0  0  0  0  0  0  0
    3.0369    7.5447    2.3654 H   0  0  0  0  0  0  0  0  0  0  0  0
    4.3127    6.7419    0.3744 H   0  0  0  0  0  0  0  0  0  0  0  0
    3.1365    5.3180   -1.3031 H   0  0  0  0  0  0  0  0  0  0  0  0
    0.7491    4.7519   -0.9359 H   0  0  0  0  0  0  0  0  0  0  0  0
  1  2  1  0  0  0  0
  2  3  1  0  0  0  0
  3  4  1  0  0  0  0
  4  5  1  0  0  0  0
  5  6  1  0  0  0  0
  6  7  1  0  0  0  0
  7  8  1  0  0  0  0
  8  9  1  0  0  0  0
  9 10  1  0  0  0  0
 10 11  4  0  0  0  0
 11 12  4  0  0  0  0
 12 13  4  0  0  0  0
 13 14  4  0  0  0  0
 10 15  4  0  0  0  0
 14 15  4  0  0  0  0
  1 16  1  0  0  0  0
  1 17  1  0  0  0  0
  1 18  1  0  0  0  0
  2 19  1  0  0  0  0
  2 20  1  0  0  0  0
  3 21  1  0  0  0  0
  3 22  1  0  0  0  0
  4 23  1  0  0  0  0
  4 24  1  0  0  0  0
  5 25  1  0  0  0  0
  5 26  1  0  0  0  0
  6 27  1  0  0  0  0
  6 28  1  0  0  0  0
  7 29  1  0  0  0  0
  7 30  1  0  0  0  0
  9 31  1  0  0  0  0
  9 32  1  0  0  0  0
 11 33  1  0  0  0  0
 12 34  1  0  0  0  0
 13 35  1  0  0  0  0
 14 36  1  0  0  0  0
 15 37  1  0  0  0  0
M  CHG  1   1   1
M  END
