39

C          1.00251        0.33714        0.33395
C          0.90026        0.76222       -1.12263
C          1.30620       -0.33615       -2.10904
C          0.46328       -1.61578       -2.05855
C         -1.04220       -1.42297       -2.27085
C         -1.43774       -0.76008       -3.59452
C         -1.04391       -1.53323       -4.85828
C         -1.68142       -2.92121       -5.00728
C         -3.21317       -2.93342       -5.08799
C         -3.75565       -2.31452       -6.35694
C         -3.80072       -3.05419       -7.54259
C         -4.28959       -2.46366       -8.70133
N         -4.70884       -1.18858       -8.67701
C         -4.67986       -0.44444       -7.56090
C         -4.20530       -0.99107       -6.37465
H          0.28977       -0.45785        0.57169
H          0.78242        1.18608        0.98927
H          2.01046       -0.01903        0.56889
H         -0.11739        1.10909       -1.33196
H          1.55781        1.62602       -1.27903
H          1.27951        0.07787       -3.12389
H          2.35348       -0.60696       -1.92407
H          0.85033       -2.31609       -2.80826
H          0.61606       -2.10960       -1.09132
H         -1.53425       -2.39901       -2.18763
H         -1.44777       -0.82215       -1.44818
H         -2.52058       -0.59462       -3.58680
H         -0.99310        0.24043       -3.64818
H         -1.29804       -0.92213       -5.73233
H          0.04599       -1.64741       -4.88930
H         -1.26660       -3.39327       -5.90722
H         -1.37077       -3.55310       -4.16722
H         -3.55878       -3.97486       -5.04324
H         -3.65756       -2.44793       -4.21181
H         -3.45796       -4.08767       -7.56450
H         -4.35327       -2.98476       -9.65059
H         -5.06172       -0.77020       -9.53886
H         -5.03681        0.57708       -7.64081
H         -4.18167       -0.38346       -5.47199
