 xtb: 6.7.1 (edcfbbe)
          12202407133D

 34 34  0     0  0            999 V2000
    1.2651   -1.2000    0.4723 C   0  0  0  0  0  0  0  0  0  0  0  0
    0.3508   -0.3145   -0.3665 C   0  0  0  0  0  0  0  0  0  0  0  0
    0.6992   -0.3230   -1.8553 C   0  0  0  0  0  0  0  0  0  0  0  0
    0.4406   -1.6689   -2.5439 C   0  0  0  0  0  0  0  0  0  0  0  0
   -0.9671   -1.9927   -2.5387 N   0  0  0  0  0  0  0  0  0  0  0  0
   -1.9053   -1.4456   -3.3599 C   0  0  0  0  0  0  0  0  0  0  0  0
   -3.1140   -1.9506   -2.9885 C   0  0  0  0  0  0  0  0  0  0  0  0
   -2.8978   -2.7909   -1.9392 N   0  0  0  0  0  0  0  0  0  0  0  0
   -1.5919   -2.8010   -1.6871 C   0  0  0  0  0  0  0  0  0  0  0  0
   -3.9057   -3.5975   -1.2913 C   0  0  0  0  0  0  0  0  0  0  0  0
   -4.2602   -4.8224   -2.1437 C   0  0  0  0  0  0  0  0  0  0  0  0
   -3.1028   -5.8062   -2.3194 C   0  0  0  0  0  0  0  0  0  0  0  0
   -2.7212   -6.5235   -1.0297 C   0  0  0  0  0  0  0  0  0  0  0  0
    1.1680   -2.2524    0.2145 H   0  0  0  0  0  0  0  0  0  0  0  0
    1.0223   -1.0913    1.5255 H   0  0  0  0  0  0  0  0  0  0  0  0
    2.3031   -0.9095    0.3347 H   0  0  0  0  0  0  0  0  0  0  0  0
   -0.6920   -0.6113   -0.2221 H   0  0  0  0  0  0  0  0  0  0  0  0
    0.4426    0.7120   -0.0102 H   0  0  0  0  0  0  0  0  0  0  0  0
    0.1258    0.4527   -2.3663 H   0  0  0  0  0  0  0  0  0  0  0  0
    1.7569   -0.0891   -1.9765 H   0  0  0  0  0  0  0  0  0  0  0  0
    0.7775   -1.6207   -3.5815 H   0  0  0  0  0  0  0  0  0  0  0  0
    0.9834   -2.4657   -2.0346 H   0  0  0  0  0  0  0  0  0  0  0  0
   -1.6574   -0.7546   -4.1393 H   0  0  0  0  0  0  0  0  0  0  0  0
   -4.0900   -1.7670   -3.3887 H   0  0  0  0  0  0  0  0  0  0  0  0
   -1.1156   -3.3734   -0.9150 H   0  0  0  0  0  0  0  0  0  0  0  0
   -3.5288   -3.9100   -0.3170 H   0  0  0  0  0  0  0  0  0  0  0  0
   -4.7958   -2.9822   -1.1439 H   0  0  0  0  0  0  0  0  0  0  0  0
   -5.0926   -5.3324   -1.6588 H   0  0  0  0  0  0  0  0  0  0  0  0
   -4.6019   -4.4850   -3.1240 H   0  0  0  0  0  0  0  0  0  0  0  0
   -3.4094   -6.5530   -3.0525 H   0  0  0  0  0  0  0  0  0  0  0  0
   -2.2306   -5.2913   -2.7327 H   0  0  0  0  0  0  0  0  0  0  0  0
   -3.5817   -7.0441   -0.6181 H   0  0  0  0  0  0  0  0  0  0  0  0
   -1.9470   -7.2590   -1.2294 H   0  0  0  0  0  0  0  0  0  0  0  0
   -2.3436   -5.8379   -0.2743 H   0  0  0  0  0  0  0  0  0  0  0  0
  1  2  1  0  0  0  0
  2  3  1  0  0  0  0
  3  4  1  0  0  0  0
  4  5  1  0  0  0  0
  5  6  4  0  0  0  0
  6  7  2  0  0  0  0
  7  8  4  0  0  0  0
  5  9  4  0  0  0  0
  8  9  4  0  0  0  0
  8 10  1  0  0  0  0
 10 11  1  0  0  0  0
 11 12  1  0  0  0  0
 12 13  1  0  0  0  0
  1 14  1  0  0  0  0
  1 15  1  0  0  0  0
  1 16  1  0  0  0  0
  2 17  1  0  0  0  0
  2 18  1  0  0  0  0
  3 19  1  0  0  0  0
  3 20  1  0  0  0  0
  4 21  1  0  0  0  0
  4 22  1  0  0  0  0
  6 23  1  0  0  0  0
  7 24  1  0  0  0  0
  9 25  1  0  0  0  0
 10 26  1  0  0  0  0
 10 27  1  0  0  0  0
 11 28  1  0  0  0  0
 11 29  1  0  0  0  0
 12 30  1  0  0  0  0
 12 31  1  0  0  0  0
 13 32  1  0  0  0  0
 13 33  1  0  0  0  0
 13 34  1  0  0  0  0
M  CHG  1   1   1
M  END
