 xtb: 6.7.1 (edcfbbe)
          12202407133D

 26 25  0     0  0            999 V2000
    0.8604    0.1343   -0.0067 C   0  0  0  0  0  0  0  0  0  0  0  0
    0.4730   -1.3397    0.0610 C   0  0  0  0  0  0  0  0  0  0  0  0
    1.0367   -2.1451    1.5980 P   0  0  0  0  0  0  0  0  0  0  0  0
    0.4454   -1.2472    3.0723 C   0  0  0  0  0  0  0  0  0  0  0  0
   -1.0741   -1.1257    3.1330 C   0  0  0  0  0  0  0  0  0  0  0  0
    0.4173   -3.8611    1.6479 C   0  0  0  0  0  0  0  0  0  0  0  0
    0.9844   -4.7328    0.5314 C   0  0  0  0  0  0  0  0  0  0  0  0
    2.8461   -2.1493    1.6481 C   0  0  0  0  0  0  0  0  0  0  0  0
    0.4075    0.7034    0.8015 H   0  0  0  0  0  0  0  0  0  0  0  0
    0.5130    0.5571   -0.9459 H   0  0  0  0  0  0  0  0  0  0  0  0
    1.9394    0.2623    0.0363 H   0  0  0  0  0  0  0  0  0  0  0  0
   -0.6122   -1.4602   -0.0023 H   0  0  0  0  0  0  0  0  0  0  0  0
    0.9203   -1.8874   -0.7733 H   0  0  0  0  0  0  0  0  0  0  0  0
    0.8240   -1.7828    3.9482 H   0  0  0  0  0  0  0  0  0  0  0  0
    0.9122   -0.2581    3.0617 H   0  0  0  0  0  0  0  0  0  0  0  0
   -1.5483   -2.1021    3.1928 H   0  0  0  0  0  0  0  0  0  0  0  0
   -1.3575   -0.5643    4.0197 H   0  0  0  0  0  0  0  0  0  0  0  0
   -1.4658   -0.5991    2.2659 H   0  0  0  0  0  0  0  0  0  0  0  0
    0.6834   -4.2712    2.6272 H   0  0  0  0  0  0  0  0  0  0  0  0
   -0.6736   -3.8242    1.5824 H   0  0  0  0  0  0  0  0  0  0  0  0
    2.0680   -4.7994    0.5907 H   0  0  0  0  0  0  0  0  0  0  0  0
    0.5844   -5.7395    0.6215 H   0  0  0  0  0  0  0  0  0  0  0  0
    0.7079   -4.3531   -0.4491 H   0  0  0  0  0  0  0  0  0  0  0  0
    3.2448   -2.5359    0.7111 H   0  0  0  0  0  0  0  0  0  0  0  0
    3.2132   -1.1352    1.8003 H   0  0  0  0  0  0  0  0  0  0  0  0
    3.1874   -2.7757    2.4718 H   0  0  0  0  0  0  0  0  0  0  0  0
  1  2  1  0  0  0  0
  2  3  1  0  0  0  0
  3  4  1  0  0  0  0
  4  5  1  0  0  0  0
  3  6  1  0  0  0  0
  6  7  1  0  0  0  0
  3  8  1  0  0  0  0
  1  9  1  0  0  0  0
  1 10  1  0  0  0  0
  1 11  1  0  0  0  0
  2 12  1  0  0  0  0
  2 13  1  0  0  0  0
  4 14  1  0  0  0  0
  4 15  1  0  0  0  0
  5 16  1  0  0  0  0
  5 17  1  0  0  0  0
  5 18  1  0  0  0  0
  6 19  1  0  0  0  0
  6 20  1  0  0  0  0
  7 21  1  0  0  0  0
  7 22  1  0  0  0  0
  7 23  1  0  0  0  0
  8 24  1  0  0  0  0
  8 25  1  0  0  0  0
  8 26  1  0  0  0  0
M  CHG  1   1   1
M  END
