 xtb: 6.7.1 (edcfbbe)
          12202407133D

 42 42  0     0  0            999 V2000
    1.5541    0.1275   -0.1522 C   0  0  0  0  0  0  0  0  0  0  0  0
    0.9597   -0.9448    0.7530 C   0  0  0  0  0  0  0  0  0  0  0  0
    1.3016   -0.7458    2.2308 C   0  0  0  0  0  0  0  0  0  0  0  0
    0.7925    0.5623    2.8406 C   0  0  0  0  0  0  0  0  0  0  0  0
   -0.7200    0.7769    2.7440 C   0  0  0  0  0  0  0  0  0  0  0  0
   -1.5705   -0.3319    3.3697 C   0  0  0  0  0  0  0  0  0  0  0  0
   -1.3337   -0.5618    4.8621 C   0  0  0  0  0  0  0  0  0  0  0  0
   -1.7639    0.6147    5.7501 C   0  0  0  0  0  0  0  0  0  0  0  0
   -3.2036    0.7902    5.7051 N   0  0  0  0  0  0  0  0  0  0  0  0
   -3.9877    0.0099    6.4615 C   0  0  0  0  0  0  0  0  0  0  0  0
   -5.3574    0.0956    6.4001 C   0  0  0  0  0  0  0  0  0  0  0  0
   -5.9679    1.0091    5.5345 C   0  0  0  0  0  0  0  0  0  0  0  0
   -5.1211    1.7993    4.7529 C   0  0  0  0  0  0  0  0  0  0  0  0
   -3.7560    1.6676    4.8586 C   0  0  0  0  0  0  0  0  0  0  0  0
   -7.4463    1.0953    5.4097 C   0  0  0  0  0  0  0  0  0  0  0  0
   -7.9223    0.1519    4.2943 C   0  0  0  0  0  0  0  0  0  0  0  0
    1.1045    1.0998    0.0346 H   0  0  0  0  0  0  0  0  0  0  0  0
    1.3829   -0.1266   -1.1952 H   0  0  0  0  0  0  0  0  0  0  0  0
    2.6267    0.2071    0.0072 H   0  0  0  0  0  0  0  0  0  0  0  0
   -0.1235   -0.9773    0.6175 H   0  0  0  0  0  0  0  0  0  0  0  0
    1.3511   -1.9175    0.4480 H   0  0  0  0  0  0  0  0  0  0  0  0
    0.9133   -1.5939    2.7996 H   0  0  0  0  0  0  0  0  0  0  0  0
    2.3882   -0.7595    2.3379 H   0  0  0  0  0  0  0  0  0  0  0  0
    1.1054    0.6001    3.8871 H   0  0  0  0  0  0  0  0  0  0  0  0
    1.2794    1.3985    2.3375 H   0  0  0  0  0  0  0  0  0  0  0  0
   -0.9545    1.7419    3.2023 H   0  0  0  0  0  0  0  0  0  0  0  0
   -0.9990    0.8540    1.6927 H   0  0  0  0  0  0  0  0  0  0  0  0
   -2.6285   -0.1124    3.1922 H   0  0  0  0  0  0  0  0  0  0  0  0
   -1.3533   -1.2667    2.8534 H   0  0  0  0  0  0  0  0  0  0  0  0
   -1.8734   -1.4582    5.1761 H   0  0  0  0  0  0  0  0  0  0  0  0
   -0.2735   -0.7374    5.0384 H   0  0  0  0  0  0  0  0  0  0  0  0
   -1.4661    0.4216    6.7826 H   0  0  0  0  0  0  0  0  0  0  0  0
   -1.2807    1.5319    5.4132 H   0  0  0  0  0  0  0  0  0  0  0  0
   -3.4945   -0.6838    7.1263 H   0  0  0  0  0  0  0  0  0  0  0  0
   -5.9574   -0.5431    7.0290 H   0  0  0  0  0  0  0  0  0  0  0  0
   -5.5313    2.5220    4.0652 H   0  0  0  0  0  0  0  0  0  0  0  0
   -3.0862    2.2762    4.2697 H   0  0  0  0  0  0  0  0  0  0  0  0
   -7.9211    0.8056    6.3474 H   0  0  0  0  0  0  0  0  0  0  0  0
   -7.7434    2.1149    5.1623 H   0  0  0  0  0  0  0  0  0  0  0  0
   -7.6490   -0.8766    4.5166 H   0  0  0  0  0  0  0  0  0  0  0  0
   -9.0030    0.2109    4.2090 H   0  0  0  0  0  0  0  0  0  0  0  0
   -7.4844    0.4315    3.3393 H   0  0  0  0  0  0  0  0  0  0  0  0
  1  2  1  0  0  0  0
  2  3  1  0  0  0  0
  3  4  1  0  0  0  0
  4  5  1  0  0  0  0
  5  6  1  0  0  0  0
  6  7  1  0  0  0  0
  7  8  1  0  0  0  0
  8  9  1  0  0  0  0
  9 10  4  0  0  0  0
 10 11  4  0  0  0  0
 11 12  4  0  0  0  0
 12 13  4  0  0  0  0
  9 14  4  0  0  0  0
 13 14  4  0  0  0  0
 12 15  1  0  0  0  0
 15 16  1  0  0  0  0
  1 17  1  0  0  0  0
  1 18  1  0  0  0  0
  1 19  1  0  0  0  0
  2 20  1  0  0  0  0
  2 21  1  0  0  0  0
  3 22  1  0  0  0  0
  3 23  1  0  0  0  0
  4 24  1  0  0  0  0
  4 25  1  0  0  0  0
  5 26  1  0  0  0  0
  5 27  1  0  0  0  0
  6 28  1  0  0  0  0
  6 29  1  0  0  0  0
  7 30  1  0  0  0  0
  7 31  1  0  0  0  0
  8 32  1  0  0  0  0
  8 33  1  0  0  0  0
 10 34  1  0  0  0  0
 11 35  1  0  0  0  0
 13 36  1  0  0  0  0
 14 37  1  0  0  0  0
 15 38  1  0  0  0  0
 15 39  1  0  0  0  0
 16 40  1  0  0  0  0
 16 41  1  0  0  0  0
 16 42  1  0  0  0  0
M  CHG  1   1   1
M  END
