58

C          1.23902       -0.10452       -0.65370
C          1.20243       -1.45591        0.04369
C          1.54880       -1.38339        1.53356
C          0.62219       -0.50662        2.38357
C         -0.85791       -0.90337        2.35943
C         -1.16540       -2.30463        2.89989
C         -0.80650       -2.52903        4.37387
C         -1.50369       -1.58997        5.36565
C         -3.03555       -1.66243        5.36336
C         -3.62595       -3.02128        5.76232
C         -3.24575       -3.51501        7.16455
C         -3.68389       -2.59849        8.31292
C         -5.19851       -2.55036        8.54781
C         -5.80014       -3.82380        9.15736
C         -5.29260       -4.17342       10.55721
N         -5.69346       -3.17760       11.55764
C         -6.81412       -3.24764       12.37161
C         -6.83066       -2.10642       13.12129
N         -5.71728       -1.37042       12.75328
C         -5.01639       -2.05162       11.83436
C         -5.35994       -0.04789       13.24871
H          0.45966        0.56393       -0.27623
H          1.07349       -0.23111       -1.72841
H          2.20973        0.38214       -0.51576
H          0.21835       -1.91528       -0.09903
H          1.92536       -2.11917       -0.44652
H          1.56471       -2.40138        1.94004
H          2.57277       -1.00271        1.63805
H          0.98770       -0.51370        3.41714
H          0.70777        0.53505        2.05202
H         -1.42690       -0.15866        2.92790
H         -1.23736       -0.83447        1.33342
H         -2.23263       -2.50713        2.75212
H         -0.64092       -3.05344        2.29503
H         -1.03674       -3.56896        4.63375
H          0.27763       -2.42899        4.50290
H         -1.12736       -1.80362        6.37277
H         -1.20344       -0.55596        5.15992
H         -3.42175       -0.88574        6.03331
H         -3.41339       -1.39664        4.36933
H         -4.71727       -2.96306        5.67908
H         -3.31683       -3.77837        5.03206
H         -3.66677       -4.51634        7.30951
H         -2.15860       -3.64446        7.21754
H         -3.17451       -2.91907        9.22750
H         -3.32579       -1.57970        8.12970
H         -5.42480       -1.69909        9.19942
H         -5.71367       -2.33709        7.60459
H         -6.88902       -3.69608        9.20195
H         -5.61593       -4.67319        8.49062
H         -5.71002       -5.14066       10.86256
H         -4.20413       -4.27857       10.58813
H         -7.46336       -4.10425       12.30283
H         -7.49839       -1.71476       13.87011
H         -4.08765       -1.73332       11.37610
H         -4.27272        0.06504       13.23820
H         -5.81418        0.70316       12.59659
H         -5.72644        0.07868       14.27076
