59

C          1.55747       -0.24132        0.54419
C          0.65863        0.97612        0.76534
C          1.09200        2.22548       -0.05105
N          0.88232        2.30035       -1.58103
C         -0.57974        2.52223       -2.05948
C         -1.30161        3.79758       -1.56230
C         -1.12309        5.07408       -2.43440
C         -1.85462        5.30145       -3.79637
C         -3.35396        5.60487       -3.62132
C         -1.21765        6.55694       -4.44424
C         -1.68887        4.13721       -4.77909
C         -2.77882        3.47651       -1.31144
C          1.77373        3.44902       -2.08545
C          1.39231        1.03755       -2.28377
C         -0.84806        0.66330        0.70405
C         -1.48315       -0.26705        1.78420
C         -0.97549        0.04226        3.20052
C         -3.01108       -0.02962        1.76020
C         -1.24795       -1.75451        1.46775
H          1.20215       -0.88167       -0.26672
H          1.60158       -0.85358        1.45010
H          2.58942        0.05522        0.33027
H          0.86757        1.29099        1.79721
H          0.62029        3.11476        0.37710
H          2.17149        2.35724        0.10553
H         -0.53468        2.49953       -3.14978
H         -1.13097        1.62895       -1.76510
H         -0.89937        4.06433       -0.58005
H         -1.39303        5.92301       -1.78777
H         -0.05351        5.20871       -2.61594
H         -3.52002        6.35976       -2.84524
H         -3.78679        5.99160       -4.55199
H         -3.93354        4.71613       -3.36389
H         -0.14763        6.40892       -4.62982
H         -1.68758        6.79377       -5.40581
H         -1.32764        7.43412       -3.79623
H         -0.63116        3.90215       -4.94009
H         -2.19995        3.23563       -4.42844
H         -2.11777        4.38395       -5.75765
H         -2.88485        2.75358       -0.49650
H         -3.33467        4.37184       -1.01580
H         -3.25079        3.03147       -2.19174
H          2.82104        3.16264       -1.94432
H          1.57129        3.60964       -3.14851
H          1.55839        4.34163       -1.49352
H          2.40322        0.82119       -1.92930
H          0.70328        0.21751       -2.07406
H          1.41010        1.22560       -3.36269
H         -1.36378        1.62918        0.76645
H         -1.08818        0.23791       -0.27565
H         -1.09245        1.10525        3.43861
H         -1.53237       -0.52885        3.95250
H          0.08073       -0.21944        3.31997
H         -3.42695       -0.23220        0.76671
H         -3.52741       -0.67859        2.47687
H         -3.25536        1.00670        2.02067
H         -1.56020       -1.99671        0.44579
H         -0.20120       -2.04409        1.57708
H         -1.82340       -2.39500        2.14676
