47

C          1.83359        0.00040        0.32103
C          1.24655       -0.19841        1.70894
C          1.87906        0.69600        2.77652
C          1.75443        2.20722        2.55154
C          0.34881        2.73953        2.25832
C         -0.69617        2.40626        3.32730
C         -1.35603        3.61911        3.96688
C         -1.83274        4.74423        3.08179
N         -1.31980        5.99825        3.05251
C         -0.17369        6.46441        3.83349
C         -2.05650        6.79508        2.19568
C         -3.04547        6.01307        1.68527
N         -2.87228        4.74175        2.21510
C         -3.75276        3.60204        1.91833
C         -3.18099        2.72457        0.83140
C         -2.47470        3.23871       -0.26756
C         -1.98652        2.39063       -1.26496
C         -2.20835        1.01891       -1.18707
C         -2.92901        0.49344       -0.11912
C         -3.42096        1.33971        0.87668
H          1.61504        0.99844       -0.06922
H          1.40553       -0.72915       -0.37410
H          2.91929       -0.13774        0.33039
H          0.16251       -0.04515        1.67502
H          1.40026       -1.24372        2.00398
H          1.44279        0.43510        3.74762
H          2.94608        0.45160        2.85776
H          2.14815        2.72171        3.43713
H          2.40915        2.49687        1.72011
H          0.42696        3.82120        2.10656
H          0.01187        2.33319        1.29837
H         -1.46956        1.77963        2.87520
H         -0.26733        1.80085        4.13255
H         -2.23965        3.31586        4.53845
H         -0.66244        4.06984        4.68202
H         -0.43061        6.42949        4.89567
H          0.68667        5.82161        3.63135
H          0.07800        7.49289        3.56052
H         -1.78471        7.82884        2.06676
H         -3.85126        6.19175        0.99361
H         -3.89818        3.03824        2.84605
H         -4.73258        3.97873        1.60277
H         -2.28692        4.30313       -0.37078
H         -1.43547        2.79973       -2.10925
H         -1.82910        0.36001       -1.96520
H         -3.11328       -0.57767       -0.06681
H         -3.99053        0.89785        1.69298
