 xtb: 6.7.1 (edcfbbe)
          12202407143D

 58 58  0     0  0            999 V2000
    1.1262   -0.1747   -0.6235 C   0  0  0  0  0  0  0  0  0  0  0  0
    1.1924   -1.4569    0.1979 C   0  0  0  0  0  0  0  0  0  0  0  0
    1.4089   -1.2064    1.6910 C   0  0  0  0  0  0  0  0  0  0  0  0
    0.2942   -0.4175    2.3808 C   0  0  0  0  0  0  0  0  0  0  0  0
   -1.0876   -1.0725    2.3314 C   0  0  0  0  0  0  0  0  0  0  0  0
   -1.1708   -2.4573    2.9771 C   0  0  0  0  0  0  0  0  0  0  0  0
   -0.7576   -2.5097    4.4495 C   0  0  0  0  0  0  0  0  0  0  0  0
   -1.5391   -1.5730    5.3727 C   0  0  0  0  0  0  0  0  0  0  0  0
   -3.0489   -1.8171    5.4092 C   0  0  0  0  0  0  0  0  0  0  0  0
   -3.4669   -3.1975    5.9199 C   0  0  0  0  0  0  0  0  0  0  0  0
   -2.9916   -3.5323    7.3354 C   0  0  0  0  0  0  0  0  0  0  0  0
   -3.4177   -2.5309    8.4118 C   0  0  0  0  0  0  0  0  0  0  0  0
   -4.9301   -2.3304    8.5384 C   0  0  0  0  0  0  0  0  0  0  0  0
   -5.7144   -3.5837    8.9261 C   0  0  0  0  0  0  0  0  0  0  0  0
   -5.3866   -4.1097   10.3295 C   0  0  0  0  0  0  0  0  0  0  0  0
   -5.7658   -3.1481   11.3381 N   0  0  0  0  0  0  0  0  0  0  0  0
   -7.0137   -2.9978   11.8598 C   0  0  0  0  0  0  0  0  0  0  0  0
   -6.9787   -1.9239   12.6964 C   0  0  0  0  0  0  0  0  0  0  0  0
   -5.7095   -1.4301   12.6673 N   0  0  0  0  0  0  0  0  0  0  0  0
   -4.9957   -2.1850   11.8360 C   0  0  0  0  0  0  0  0  0  0  0  0
   -5.2398   -0.2939   13.4135 C   0  0  0  0  0  0  0  0  0  0  0  0
    0.2449    0.4095   -0.3707 H   0  0  0  0  0  0  0  0  0  0  0  0
    1.0815   -0.4091   -1.6846 H   0  0  0  0  0  0  0  0  0  0  0  0
    2.0083    0.4368   -0.4454 H   0  0  0  0  0  0  0  0  0  0  0  0
    0.2789   -2.0345    0.0457 H   0  0  0  0  0  0  0  0  0  0  0  0
    2.0242   -2.0648   -0.1663 H   0  0  0  0  0  0  0  0  0  0  0  0
    1.5355   -2.1684    2.1924 H   0  0  0  0  0  0  0  0  0  0  0  0
    2.3422   -0.6513    1.8174 H   0  0  0  0  0  0  0  0  0  0  0  0
    0.5824   -0.2597    3.4225 H   0  0  0  0  0  0  0  0  0  0  0  0
    0.2191    0.5693    1.9201 H   0  0  0  0  0  0  0  0  0  0  0  0
   -1.8007   -0.4030    2.8183 H   0  0  0  0  0  0  0  0  0  0  0  0
   -1.4025   -1.1652    1.2904 H   0  0  0  0  0  0  0  0  0  0  0  0
   -2.1960   -2.8213    2.8751 H   0  0  0  0  0  0  0  0  0  0  0  0
   -0.5335   -3.1489    2.4230 H   0  0  0  0  0  0  0  0  0  0  0  0
   -0.8655   -3.5391    4.7996 H   0  0  0  0  0  0  0  0  0  0  0  0
    0.3011   -2.2569    4.5312 H   0  0  0  0  0  0  0  0  0  0  0  0
   -1.1295   -1.6649    6.3817 H   0  0  0  0  0  0  0  0  0  0  0  0
   -1.3715   -0.5420    5.0564 H   0  0  0  0  0  0  0  0  0  0  0  0
   -3.5084   -1.0432    6.0294 H   0  0  0  0  0  0  0  0  0  0  0  0
   -3.4525   -1.6946    4.4032 H   0  0  0  0  0  0  0  0  0  0  0  0
   -4.5564   -3.2678    5.8727 H   0  0  0  0  0  0  0  0  0  0  0  0
   -3.0729   -3.9597    5.2466 H   0  0  0  0  0  0  0  0  0  0  0  0
   -3.3534   -4.5301    7.5955 H   0  0  0  0  0  0  0  0  0  0  0  0
   -1.9020   -3.5824    7.3404 H   0  0  0  0  0  0  0  0  0  0  0  0
   -2.9971   -2.8578    9.3673 H   0  0  0  0  0  0  0  0  0  0  0  0
   -2.9711   -1.5621    8.1855 H   0  0  0  0  0  0  0  0  0  0  0  0
   -5.1247   -1.5349    9.2653 H   0  0  0  0  0  0  0  0  0  0  0  0
   -5.3153   -1.9797    7.5815 H   0  0  0  0  0  0  0  0  0  0  0  0
   -6.7836   -3.3691    8.8695 H   0  0  0  0  0  0  0  0  0  0  0  0
   -5.5003   -4.3810    8.2163 H   0  0  0  0  0  0  0  0  0  0  0  0
   -5.9351   -5.0348   10.5154 H   0  0  0  0  0  0  0  0  0  0  0  0
   -4.3181   -4.3089   10.4184 H   0  0  0  0  0  0  0  0  0  0  0  0
   -7.8247   -3.6521   11.6128 H   0  0  0  0  0  0  0  0  0  0  0  0
   -7.7524   -1.4892   13.2957 H   0  0  0  0  0  0  0  0  0  0  0  0
   -3.9557   -2.0461   11.6120 H   0  0  0  0  0  0  0  0  0  0  0  0
   -4.1981   -0.0965   13.1714 H   0  0  0  0  0  0  0  0  0  0  0  0
   -5.8361    0.5859   13.1698 H   0  0  0  0  0  0  0  0  0  0  0  0
   -5.3273   -0.4848   14.4837 H   0  0  0  0  0  0  0  0  0  0  0  0
  1  2  1  0  0  0  0
  2  3  1  0  0  0  0
  3  4  1  0  0  0  0
  4  5  1  0  0  0  0
  5  6  1  0  0  0  0
  6  7  1  0  0  0  0
  7  8  1  0  0  0  0
  8  9  1  0  0  0  0
  9 10  1  0  0  0  0
 10 11  1  0  0  0  0
 11 12  1  0  0  0  0
 12 13  1  0  0  0  0
 13 14  1  0  0  0  0
 14 15  1  0  0  0  0
 15 16  1  0  0  0  0
 16 17  4  0  0  0  0
 17 18  2  0  0  0  0
 18 19  4  0  0  0  0
 16 20  4  0  0  0  0
 19 20  4  0  0  0  0
 19 21  1  0  0  0  0
  1 22  1  0  0  0  0
  1 23  1  0  0  0  0
  1 24  1  0  0  0  0
  2 25  1  0  0  0  0
  2 26  1  0  0  0  0
  3 27  1  0  0  0  0
  3 28  1  0  0  0  0
  4 29  1  0  0  0  0
  4 30  1  0  0  0  0
  5 31  1  0  0  0  0
  5 32  1  0  0  0  0
  6 33  1  0  0  0  0
  6 34  1  0  0  0  0
  7 35  1  0  0  0  0
  7 36  1  0  0  0  0
  8 37  1  0  0  0  0
  8 38  1  0  0  0  0
  9 39  1  0  0  0  0
  9 40  1  0  0  0  0
 10 41  1  0  0  0  0
 10 42  1  0  0  0  0
 11 43  1  0  0  0  0
 11 44  1  0  0  0  0
 12 45  1  0  0  0  0
 12 46  1  0  0  0  0
 13 47  1  0  0  0  0
 13 48  1  0  0  0  0
 14 49  1  0  0  0  0
 14 50  1  0  0  0  0
 15 51  1  0  0  0  0
 15 52  1  0  0  0  0
 17 53  1  0  0  0  0
 18 54  1  0  0  0  0
 20 55  1  0  0  0  0
 21 56  1  0  0  0  0
 21 57  1  0  0  0  0
 21 58  1  0  0  0  0
M  CHG  1   1   1
M  END
