 xtb: 6.7.1 (edcfbbe)
          12202407143D

 67 69  0     0  0            999 V2000
    0.7187   -0.4008    0.1810 Br  0  0  0  0  0  0  0  0  0  0  0  0
    2.5832   -0.8622   -0.2068 C   0  0  0  0  0  0  0  0  0  0  0  0
    2.8473   -0.9590   -1.6987 C   0  0  0  0  0  0  0  0  0  0  0  0
    2.5304    0.3177   -2.4791 C   0  0  0  0  0  0  0  0  0  0  0  0
    3.2901    1.5645   -2.0235 C   0  0  0  0  0  0  0  0  0  0  0  0
    4.8139    1.4701   -2.1225 C   0  0  0  0  0  0  0  0  0  0  0  0
    5.3545    1.2180   -3.5323 C   0  0  0  0  0  0  0  0  0  0  0  0
    4.9274    2.2440   -4.5848 C   0  0  0  0  0  0  0  0  0  0  0  0
    5.2773    3.6966   -4.2556 C   0  0  0  0  0  0  0  0  0  0  0  0
    6.7748    3.9896   -4.1358 C   0  0  0  0  0  0  0  0  0  0  0  0
    7.5412    3.9202   -5.4594 C   0  0  0  0  0  0  0  0  0  0  0  0
    7.2386    5.0780   -6.4146 C   0  0  0  0  0  0  0  0  0  0  0  0
    7.8490    6.4112   -5.9674 C   0  0  0  0  0  0  0  0  0  0  0  0
    9.2863    6.4419   -6.1424 N   0  0  0  0  0  0  0  0  0  0  0  0
   10.2451    6.1841   -5.1689 C   0  0  0  0  0  0  0  0  0  0  0  0
   10.1369    5.8623   -3.8262 C   0  0  0  0  0  0  0  0  0  0  0  0
   11.3143    5.6711   -3.1262 C   0  0  0  0  0  0  0  0  0  0  0  0
   12.5577    5.7972   -3.7401 C   0  0  0  0  0  0  0  0  0  0  0  0
   12.6738    6.1227   -5.0794 C   0  0  0  0  0  0  0  0  0  0  0  0
   11.4989    6.3153   -5.7862 C   0  0  0  0  0  0  0  0  0  0  0  0
   11.2595    6.6455   -7.1145 N   0  0  0  0  0  0  0  0  0  0  0  0
    9.9287    6.7078   -7.2923 C   0  0  0  0  0  0  0  0  0  0  0  0
    9.3395    7.0468   -8.4442 N   0  0  0  0  0  0  0  0  0  0  0  0
   12.2549    6.9201   -8.1343 C   0  0  0  0  0  0  0  0  0  0  0  0
   11.9925    6.1304   -9.3943 C   0  0  0  0  0  0  0  0  0  0  0  0
   11.8634    6.7740  -10.6205 C   0  0  0  0  0  0  0  0  0  0  0  0
   11.6256    6.0398  -11.7712 C   0  0  0  0  0  0  0  0  0  0  0  0
   11.5027    4.6625  -11.7018 C   0  0  0  0  0  0  0  0  0  0  0  0
   11.6255    4.0170  -10.4815 C   0  0  0  0  0  0  0  0  0  0  0  0
   11.8714    4.7463   -9.3320 C   0  0  0  0  0  0  0  0  0  0  0  0
    3.1876   -0.0920    0.2689 H   0  0  0  0  0  0  0  0  0  0  0  0
    2.7615   -1.8176    0.2851 H   0  0  0  0  0  0  0  0  0  0  0  0
    3.8987   -1.2292   -1.8276 H   0  0  0  0  0  0  0  0  0  0  0  0
    2.2458   -1.7716   -2.1137 H   0  0  0  0  0  0  0  0  0  0  0  0
    2.7328    0.1298   -3.5351 H   0  0  0  0  0  0  0  0  0  0  0  0
    1.4615    0.5237   -2.3878 H   0  0  0  0  0  0  0  0  0  0  0  0
    2.9404    2.4073   -2.6225 H   0  0  0  0  0  0  0  0  0  0  0  0
    3.0263    1.7901   -0.9883 H   0  0  0  0  0  0  0  0  0  0  0  0
    5.2392    2.3979   -1.7329 H   0  0  0  0  0  0  0  0  0  0  0  0
    5.1713    0.6655   -1.4760 H   0  0  0  0  0  0  0  0  0  0  0  0
    6.4455    1.1824   -3.4786 H   0  0  0  0  0  0  0  0  0  0  0  0
    5.0249    0.2343   -3.8717 H   0  0  0  0  0  0  0  0  0  0  0  0
    5.3812    1.9636   -5.5383 H   0  0  0  0  0  0  0  0  0  0  0  0
    3.8466    2.1836   -4.7205 H   0  0  0  0  0  0  0  0  0  0  0  0
    4.8395    4.3368   -5.0250 H   0  0  0  0  0  0  0  0  0  0  0  0
    4.8020    3.9682   -3.3126 H   0  0  0  0  0  0  0  0  0  0  0  0
    6.8909    4.9814   -3.6921 H   0  0  0  0  0  0  0  0  0  0  0  0
    7.2207    3.2758   -3.4428 H   0  0  0  0  0  0  0  0  0  0  0  0
    8.6145    3.8941   -5.2548 H   0  0  0  0  0  0  0  0  0  0  0  0
    7.2876    2.9864   -5.9611 H   0  0  0  0  0  0  0  0  0  0  0  0
    7.6152    4.8271   -7.4098 H   0  0  0  0  0  0  0  0  0  0  0  0
    6.1597    5.2090   -6.4941 H   0  0  0  0  0  0  0  0  0  0  0  0
    7.4139    7.2414   -6.5310 H   0  0  0  0  0  0  0  0  0  0  0  0
    7.6432    6.5844   -4.9112 H   0  0  0  0  0  0  0  0  0  0  0  0
    9.1817    5.7575   -3.3400 H   0  0  0  0  0  0  0  0  0  0  0  0
   11.2678    5.4182   -2.0793 H   0  0  0  0  0  0  0  0  0  0  0  0
   13.4511    5.6396   -3.1579 H   0  0  0  0  0  0  0  0  0  0  0  0
   13.6421    6.2219   -5.5420 H   0  0  0  0  0  0  0  0  0  0  0  0
    8.3423    6.9639   -8.5403 H   0  0  0  0  0  0  0  0  0  0  0  0
    9.8980    7.0735   -9.2860 H   0  0  0  0  0  0  0  0  0  0  0  0
   12.2665    7.9939   -8.3505 H   0  0  0  0  0  0  0  0  0  0  0  0
   13.2263    6.6456   -7.7182 H   0  0  0  0  0  0  0  0  0  0  0  0
   11.9720    7.8479  -10.6796 H   0  0  0  0  0  0  0  0  0  0  0  0
   11.5396    6.5457  -12.7200 H   0  0  0  0  0  0  0  0  0  0  0  0
   11.3192    4.0915  -12.5981 H   0  0  0  0  0  0  0  0  0  0  0  0
   11.5394    2.9431  -10.4265 H   0  0  0  0  0  0  0  0  0  0  0  0
   11.9801    4.2411   -8.3828 H   0  0  0  0  0  0  0  0  0  0  0  0
  1  2  1  0  0  0  0
  2  3  1  0  0  0  0
  3  4  1  0  0  0  0
  4  5  1  0  0  0  0
  5  6  1  0  0  0  0
  6  7  1  0  0  0  0
  7  8  1  0  0  0  0
  8  9  1  0  0  0  0
  9 10  1  0  0  0  0
 10 11  1  0  0  0  0
 11 12  1  0  0  0  0
 12 13  1  0  0  0  0
 13 14  1  0  0  0  0
 14 15  1  0  0  0  0
 15 16  4  0  0  0  0
 16 17  4  0  0  0  0
 17 18  4  0  0  0  0
 18 19  4  0  0  0  0
 15 20  4  0  0  0  0
 19 20  4  0  0  0  0
 20 21  1  0  0  0  0
 14 22  4  0  0  0  0
 21 22  4  0  0  0  0
 22 23  4  0  0  0  0
 21 24  1  0  0  0  0
 24 25  1  0  0  0  0
 25 26  4  0  0  0  0
 26 27  4  0  0  0  0
 27 28  4  0  0  0  0
 28 29  4  0  0  0  0
 25 30  4  0  0  0  0
 29 30  4  0  0  0  0
  2 31  1  0  0  0  0
  2 32  1  0  0  0  0
  3 33  1  0  0  0  0
  3 34  1  0  0  0  0
  4 35  1  0  0  0  0
  4 36  1  0  0  0  0
  5 37  1  0  0  0  0
  5 38  1  0  0  0  0
  6 39  1  0  0  0  0
  6 40  1  0  0  0  0
  7 41  1  0  0  0  0
  7 42  1  0  0  0  0
  8 43  1  0  0  0  0
  8 44  1  0  0  0  0
  9 45  1  0  0  0  0
  9 46  1  0  0  0  0
 10 47  1  0  0  0  0
 10 48  1  0  0  0  0
 11 49  1  0  0  0  0
 11 50  1  0  0  0  0
 12 51  1  0  0  0  0
 12 52  1  0  0  0  0
 13 53  1  0  0  0  0
 13 54  1  0  0  0  0
 16 55  1  0  0  0  0
 17 56  1  0  0  0  0
 18 57  1  0  0  0  0
 19 58  1  0  0  0  0
 23 59  1  0  0  0  0
 23 60  1  0  0  0  0
 24 61  1  0  0  0  0
 24 62  1  0  0  0  0
 26 63  1  0  0  0  0
 27 64  1  0  0  0  0
 28 65  1  0  0  0  0
 29 66  1  0  0  0  0
 30 67  1  0  0  0  0
M  CHG  1   1   1
M  END
