 xtb: 6.7.1 (edcfbbe)
          12202407143D

 32 34  0     0  0            999 V2000
   -1.9445   -3.5453    1.2488 O   0  0  0  0  0  0  0  0  0  0  0  0
   -1.5494   -2.5347    0.4969 C   0  0  0  0  0  0  0  0  0  0  0  0
   -0.3904   -2.2087    0.3585 O   0  0  0  0  0  0  0  0  0  0  0  0
   -2.6586   -1.8165   -0.1802 C   0  0  0  0  0  0  0  0  0  0  0  0
   -3.9868   -2.2023   -0.0434 C   0  0  0  0  0  0  0  0  0  0  0  0
   -4.9809   -1.5070   -0.7104 C   0  0  0  0  0  0  0  0  0  0  0  0
   -4.6547   -0.4289   -1.5176 C   0  0  0  0  0  0  0  0  0  0  0  0
   -3.3333   -0.0338   -1.6615 C   0  0  0  0  0  0  0  0  0  0  0  0
   -2.3286   -0.7216   -0.9927 C   0  0  0  0  0  0  0  0  0  0  0  0
   -0.9262   -0.3022   -1.1422 C   0  0  0  0  0  0  0  0  0  0  0  0
   -0.1285   -0.6664   -2.1541 N   0  0  0  0  0  0  0  0  0  0  0  0
    1.0947   -0.0468   -2.0077 C   0  0  0  0  0  0  0  0  0  0  0  0
    0.9865    0.7558   -0.8591 C   0  0  0  0  0  0  0  0  0  0  0  0
   -0.2944    0.5803   -0.3690 N   0  0  0  0  0  0  0  0  0  0  0  0
   -0.8053    1.1929    0.8266 C   0  0  0  0  0  0  0  0  0  0  0  0
    2.0512    1.5289   -0.4166 C   0  0  0  0  0  0  0  0  0  0  0  0
    3.2137    1.4698   -1.1597 C   0  0  0  0  0  0  0  0  0  0  0  0
    3.3184    0.6737   -2.3029 C   0  0  0  0  0  0  0  0  0  0  0  0
    2.2646   -0.0986   -2.7504 C   0  0  0  0  0  0  0  0  0  0  0  0
   -1.1927   -3.9957    1.6684 H   0  0  0  0  0  0  0  0  0  0  0  0
   -4.2254   -3.0460    0.5841 H   0  0  0  0  0  0  0  0  0  0  0  0
   -6.0108   -1.8080   -0.6029 H   0  0  0  0  0  0  0  0  0  0  0  0
   -5.4291    0.1102   -2.0403 H   0  0  0  0  0  0  0  0  0  0  0  0
   -3.0830    0.8082   -2.2890 H   0  0  0  0  0  0  0  0  0  0  0  0
   -0.3606   -1.3488   -2.8599 H   0  0  0  0  0  0  0  0  0  0  0  0
   -1.8733    1.0007    0.9119 H   0  0  0  0  0  0  0  0  0  0  0  0
   -0.2963    0.7817    1.7002 H   0  0  0  0  0  0  0  0  0  0  0  0
   -0.6323    2.2685    0.7899 H   0  0  0  0  0  0  0  0  0  0  0  0
    1.9795    2.1415    0.4667 H   0  0  0  0  0  0  0  0  0  0  0  0
    4.0667    2.0519   -0.8494 H   0  0  0  0  0  0  0  0  0  0  0  0
    4.2489    0.6620   -2.8476 H   0  0  0  0  0  0  0  0  0  0  0  0
    2.3476   -0.7148   -3.6305 H   0  0  0  0  0  0  0  0  0  0  0  0
  1  2  1  0  0  0  0
  2  3  2  0  0  0  0
  2  4  1  0  0  0  0
  4  5  4  0  0  0  0
  5  6  4  0  0  0  0
  6  7  4  0  0  0  0
  7  8  4  0  0  0  0
  4  9  4  0  0  0  0
  8  9  4  0  0  0  0
  9 10  1  0  0  0  0
 10 11  4  0  0  0  0
 11 12  1  0  0  0  0
 12 13  4  0  0  0  0
 10 14  4  0  0  0  0
 13 14  1  0  0  0  0
 14 15  1  0  0  0  0
 13 16  4  0  0  0  0
 16 17  4  0  0  0  0
 17 18  4  0  0  0  0
 12 19  4  0  0  0  0
 18 19  4  0  0  0  0
  1 20  1  0  0  0  0
  5 21  1  0  0  0  0
  6 22  1  0  0  0  0
  7 23  1  0  0  0  0
  8 24  1  0  0  0  0
 11 25  1  0  0  0  0
 15 26  1  0  0  0  0
 15 27  1  0  0  0  0
 15 28  1  0  0  0  0
 16 29  1  0  0  0  0
 17 30  1  0  0  0  0
 18 31  1  0  0  0  0
 19 32  1  0  0  0  0
M  CHG  1   1   1
M  END
