 xtb: 6.7.1 (edcfbbe)
          12202407143D

 39 38  0     0  0            999 V2000
    2.4151    2.7533   -1.4722 C   0  0  0  0  0  0  0  0  0  0  0  0
    1.8585    2.1574   -2.7606 C   0  0  0  0  0  0  0  0  0  0  0  0
    1.5112    0.6736   -2.6373 C   0  0  0  0  0  0  0  0  0  0  0  0
    0.2941    0.4295   -1.7498 C   0  0  0  0  0  0  0  0  0  0  0  0
    0.0244   -0.9723   -1.7640 O   0  0  0  0  0  0  0  0  0  0  0  0
   -0.9861   -1.4712   -0.9201 C   0  0  0  0  0  0  0  0  0  0  0  0
   -0.5197   -1.6178    0.5529 C   0  0  0  0  0  0  0  0  0  0  0  0
    0.6779   -2.4790    0.7967 N   0  0  0  0  0  0  0  0  0  0  0  0
    1.9054   -1.8172    0.3155 C   0  0  0  0  0  0  0  0  0  0  0  0
    0.7940   -2.7033    2.2513 C   0  0  0  0  0  0  0  0  0  0  0  0
    0.5448   -3.7831    0.1219 C   0  0  0  0  0  0  0  0  0  0  0  0
   -2.3035   -0.6779   -0.9420 C   0  0  0  0  0  0  0  0  0  0  0  0
   -2.9388   -0.7022   -2.3287 C   0  0  0  0  0  0  0  0  0  0  0  0
    1.6727    2.7502   -0.6772 H   0  0  0  0  0  0  0  0  0  0  0  0
    2.7164    3.7833   -1.6404 H   0  0  0  0  0  0  0  0  0  0  0  0
    3.2881    2.1956   -1.1386 H   0  0  0  0  0  0  0  0  0  0  0  0
    0.9715    2.7140   -3.0678 H   0  0  0  0  0  0  0  0  0  0  0  0
    2.6056    2.2671   -3.5475 H   0  0  0  0  0  0  0  0  0  0  0  0
    1.2890    0.2654   -3.6241 H   0  0  0  0  0  0  0  0  0  0  0  0
    2.3730    0.1318   -2.2410 H   0  0  0  0  0  0  0  0  0  0  0  0
    0.4876    0.7714   -0.7254 H   0  0  0  0  0  0  0  0  0  0  0  0
   -0.5571    0.9893   -2.1486 H   0  0  0  0  0  0  0  0  0  0  0  0
   -1.2007   -2.4640   -1.3320 H   0  0  0  0  0  0  0  0  0  0  0  0
   -0.3022   -0.6268    0.9567 H   0  0  0  0  0  0  0  0  0  0  0  0
   -1.3527   -2.0408    1.1167 H   0  0  0  0  0  0  0  0  0  0  0  0
    2.0704   -0.8885    0.8587 H   0  0  0  0  0  0  0  0  0  0  0  0
    2.7634   -2.4691    0.4683 H   0  0  0  0  0  0  0  0  0  0  0  0
    1.8025   -1.5978   -0.7465 H   0  0  0  0  0  0  0  0  0  0  0  0
   -0.0570   -3.2748    2.6172 H   0  0  0  0  0  0  0  0  0  0  0  0
    1.7053   -3.2564    2.4723 H   0  0  0  0  0  0  0  0  0  0  0  0
    0.8295   -1.7522    2.7797 H   0  0  0  0  0  0  0  0  0  0  0  0
   -0.4092   -4.2431    0.3734 H   0  0  0  0  0  0  0  0  0  0  0  0
    0.6108   -3.6550   -0.9562 H   0  0  0  0  0  0  0  0  0  0  0  0
    1.3476   -4.4455    0.4413 H   0  0  0  0  0  0  0  0  0  0  0  0
   -2.9920   -1.1287   -0.2257 H   0  0  0  0  0  0  0  0  0  0  0  0
   -2.1250    0.3506   -0.6260 H   0  0  0  0  0  0  0  0  0  0  0  0
   -3.2454   -1.7120   -2.5888 H   0  0  0  0  0  0  0  0  0  0  0  0
   -3.8155   -0.0620   -2.3479 H   0  0  0  0  0  0  0  0  0  0  0  0
   -2.2400   -0.3555   -3.0846 H   0  0  0  0  0  0  0  0  0  0  0  0
  1  2  1  0  0  0  0
  2  3  1  0  0  0  0
  3  4  1  0  0  0  0
  4  5  1  0  0  0  0
  5  6  1  0  0  0  0
  6  7  1  0  0  0  0
  7  8  1  0  0  0  0
  8  9  1  0  0  0  0
  8 10  1  0  0  0  0
  8 11  1  0  0  0  0
  6 12  1  0  0  0  0
 12 13  1  0  0  0  0
  1 14  1  0  0  0  0
  1 15  1  0  0  0  0
  1 16  1  0  0  0  0
  2 17  1  0  0  0  0
  2 18  1  0  0  0  0
  3 19  1  0  0  0  0
  3 20  1  0  0  0  0
  4 21  1  0  0  0  0
  4 22  1  0  0  0  0
  6 23  1  0  0  0  0
  7 24  1  0  0  0  0
  7 25  1  0  0  0  0
  9 26  1  0  0  0  0
  9 27  1  0  0  0  0
  9 28  1  0  0  0  0
 10 29  1  0  0  0  0
 10 30  1  0  0  0  0
 10 31  1  0  0  0  0
 11 32  1  0  0  0  0
 11 33  1  0  0  0  0
 11 34  1  0  0  0  0
 12 35  1  0  0  0  0
 12 36  1  0  0  0  0
 13 37  1  0  0  0  0
 13 38  1  0  0  0  0
 13 39  1  0  0  0  0
M  CHG  1   1   1
M  END
