67

Br         1.00605       -0.28849        1.00690
C          2.76504       -0.62632        0.24922
C          2.69411       -0.81786       -1.25875
C          2.31465        0.42792       -2.07174
C          3.21440        1.65178       -1.87204
C          4.69805        1.42993       -2.18154
C          5.01202        1.03934       -3.63054
C          4.59197        2.05693       -4.70128
C          5.07843        3.49480       -4.48021
C          6.60232        3.65195       -4.44124
C          7.25460        3.75406       -5.82717
C          7.14945        5.14071       -6.47937
C          7.87135        6.27289       -5.73925
N          9.30308        6.33555       -6.04616
C         10.30271        5.63160       -5.37369
C         10.25690        4.78732       -4.26594
C         11.46771        4.20278       -3.87785
C         12.66585        4.46637       -4.56459
C         12.70955        5.33696       -5.66197
C         11.49919        5.91458       -6.04133
N         11.17910        6.83885       -7.03654
C          9.88064        7.09802       -6.97088
N          9.24467        8.02043       -7.69464
C         12.13520        7.44403       -7.95838
C         12.14478        6.69197       -9.26501
C         11.23898        7.00314      -10.29193
C         11.26701        6.31088      -11.50443
C         12.20318        5.30229      -11.71031
C         13.10877        4.98079      -10.70310
C         13.07758        5.66662       -9.48670
H          3.41159        0.20186        0.54752
H          3.12389       -1.53868        0.73459
H          3.66777       -1.18372       -1.60570
H          1.97512       -1.61286       -1.49416
H          2.30498        0.15594       -3.13405
H          1.28377        0.71766       -1.83628
H          2.82884        2.46950       -2.49222
H          3.12340        2.00404       -0.83781
H          5.24789        2.34252       -1.92258
H          5.09857        0.65548       -1.51705
H          6.08992        0.85579       -3.71065
H          4.53943        0.07730       -3.86132
H          4.94522        1.69963       -5.67599
H          3.49716        2.07087       -4.76597
H          4.65409        4.13418       -5.26276
H          4.66350        3.87064       -3.53797
H          6.83573        4.53797       -3.84440
H          7.05728        2.81624       -3.90060
H          8.30963        3.47492       -5.74812
H          6.80441        3.01260       -6.49801
H          7.54178        5.07330       -7.50181
H          6.08949        5.40378       -6.57037
H          7.41871        7.22499       -6.03471
H          7.74470        6.22443       -4.65527
H          9.33717        4.58891       -3.73286
H         11.48264        3.52554       -3.02333
H         13.58441        3.98466       -4.22805
H         13.63622        5.54745       -6.17896
H          8.25097        8.16058       -7.61221
H          9.74815        8.63780       -8.30985
H         11.87562        8.49611       -8.11875
H         13.13450        7.45224       -7.50878
H         10.50909        7.79747      -10.18202
H         10.56506        6.56366      -12.29631
H         12.23177        4.77079      -12.65901
H         13.84533        4.19769      -10.87036
H         13.80423        5.39786       -8.72360
