 xtb: 6.7.1 (edcfbbe)
          12202407143D

 45 45  0     0  0            999 V2000
    2.0716   -0.0750    0.2028 C   0  0  0  0  0  0  0  0  0  0  0  0
    1.3359   -0.0832    1.5371 C   0  0  0  0  0  0  0  0  0  0  0  0
    1.3145    1.2841    2.2227 C   0  0  0  0  0  0  0  0  0  0  0  0
    0.5958    2.3841    1.4385 C   0  0  0  0  0  0  0  0  0  0  0  0
   -0.8792    2.1055    1.1430 C   0  0  0  0  0  0  0  0  0  0  0  0
   -1.7573    1.8688    2.3751 C   0  0  0  0  0  0  0  0  0  0  0  0
   -1.7038    2.9803    3.4312 C   0  0  0  0  0  0  0  0  0  0  0  0
   -2.1163    4.3710    2.9328 C   0  0  0  0  0  0  0  0  0  0  0  0
   -3.5129    4.8167    3.2410 N   0  0  0  0  0  0  0  0  0  0  0  0
   -4.4746    3.8153    2.7532 C   0  0  0  0  0  0  0  0  0  0  0  0
   -3.6614    5.0340    4.7078 C   0  0  0  0  0  0  0  0  0  0  0  0
   -4.9877    5.6764    5.0979 C   0  0  0  0  0  0  0  0  0  0  0  0
   -5.1647    7.0109    4.3825 C   0  0  0  0  0  0  0  0  0  0  0  0
   -5.0445    6.7981    2.8779 C   0  0  0  0  0  0  0  0  0  0  0  0
   -3.7238    6.1172    2.5372 C   0  0  0  0  0  0  0  0  0  0  0  0
    1.5484    0.5267   -0.5360 H   0  0  0  0  0  0  0  0  0  0  0  0
    2.1522   -1.0869   -0.1857 H   0  0  0  0  0  0  0  0  0  0  0  0
    3.0756    0.3239    0.3251 H   0  0  0  0  0  0  0  0  0  0  0  0
    0.3171   -0.4467    1.3901 H   0  0  0  0  0  0  0  0  0  0  0  0
    1.8348   -0.7855    2.2080 H   0  0  0  0  0  0  0  0  0  0  0  0
    0.8580    1.1745    3.2092 H   0  0  0  0  0  0  0  0  0  0  0  0
    2.3458    1.6071    2.3801 H   0  0  0  0  0  0  0  0  0  0  0  0
    0.6905    3.3238    1.9891 H   0  0  0  0  0  0  0  0  0  0  0  0
    1.1059    2.5268    0.4856 H   0  0  0  0  0  0  0  0  0  0  0  0
   -1.2734    2.9364    0.5503 H   0  0  0  0  0  0  0  0  0  0  0  0
   -0.9527    1.2187    0.5134 H   0  0  0  0  0  0  0  0  0  0  0  0
   -2.7822    1.7030    2.0382 H   0  0  0  0  0  0  0  0  0  0  0  0
   -1.4312    0.9490    2.8608 H   0  0  0  0  0  0  0  0  0  0  0  0
   -2.2998    2.6764    4.2921 H   0  0  0  0  0  0  0  0  0  0  0  0
   -0.6754    3.0517    3.7846 H   0  0  0  0  0  0  0  0  0  0  0  0
   -1.4478    5.1217    3.3584 H   0  0  0  0  0  0  0  0  0  0  0  0
   -1.9988    4.4015    1.8483 H   0  0  0  0  0  0  0  0  0  0  0  0
   -4.3033    3.6304    1.6946 H   0  0  0  0  0  0  0  0  0  0  0  0
   -4.3567    2.8841    3.3012 H   0  0  0  0  0  0  0  0  0  0  0  0
   -5.4939    4.1656    2.8845 H   0  0  0  0  0  0  0  0  0  0  0  0
   -2.8461    5.6881    5.0251 H   0  0  0  0  0  0  0  0  0  0  0  0
   -3.5490    4.0761    5.2163 H   0  0  0  0  0  0  0  0  0  0  0  0
   -4.9762    5.8289    6.1773 H   0  0  0  0  0  0  0  0  0  0  0  0
   -5.8249    5.0140    4.8769 H   0  0  0  0  0  0  0  0  0  0  0  0
   -6.1358    7.4396    4.6232 H   0  0  0  0  0  0  0  0  0  0  0  0
   -4.3996    7.7131    4.7181 H   0  0  0  0  0  0  0  0  0  0  0  0
   -5.8930    6.2213    2.5090 H   0  0  0  0  0  0  0  0  0  0  0  0
   -5.0629    7.7574    2.3603 H   0  0  0  0  0  0  0  0  0  0  0  0
   -3.6615    5.9366    1.4623 H   0  0  0  0  0  0  0  0  0  0  0  0
   -2.9041    6.7807    2.8224 H   0  0  0  0  0  0  0  0  0  0  0  0
  1  2  1  0  0  0  0
  2  3  1  0  0  0  0
  3  4  1  0  0  0  0
  4  5  1  0  0  0  0
  5  6  1  0  0  0  0
  6  7  1  0  0  0  0
  7  8  1  0  0  0  0
  8  9  1  0  0  0  0
  9 10  1  0  0  0  0
  9 11  1  0  0  0  0
 11 12  1  0  0  0  0
 12 13  1  0  0  0  0
 13 14  1  0  0  0  0
  9 15  1  0  0  0  0
 14 15  1  0  0  0  0
  1 16  1  0  0  0  0
  1 17  1  0  0  0  0
  1 18  1  0  0  0  0
  2 19  1  0  0  0  0
  2 20  1  0  0  0  0
  3 21  1  0  0  0  0
  3 22  1  0  0  0  0
  4 23  1  0  0  0  0
  4 24  1  0  0  0  0
  5 25  1  0  0  0  0
  5 26  1  0  0  0  0
  6 27  1  0  0  0  0
  6 28  1  0  0  0  0
  7 29  1  0  0  0  0
  7 30  1  0  0  0  0
  8 31  1  0  0  0  0
  8 32  1  0  0  0  0
 10 33  1  0  0  0  0
 10 34  1  0  0  0  0
 10 35  1  0  0  0  0
 11 36  1  0  0  0  0
 11 37  1  0  0  0  0
 12 38  1  0  0  0  0
 12 39  1  0  0  0  0
 13 40  1  0  0  0  0
 13 41  1  0  0  0  0
 14 42  1  0  0  0  0
 14 43  1  0  0  0  0
 15 44  1  0  0  0  0
 15 45  1  0  0  0  0
M  CHG  1   1   1
M  END
