 xtb: 6.7.1 (edcfbbe)
          12202407143D

 36 37  0     0  0            999 V2000
    0.9749    2.9825   -1.2113 C   0  0  0  0  0  0  0  0  0  0  0  0
    1.0986    2.0928   -0.1156 O   0  0  0  0  0  0  0  0  0  0  0  0
    1.4821    2.5797    1.0915 C   0  0  0  0  0  0  0  0  0  0  0  0
    1.7560    3.9290    1.3206 C   0  0  0  0  0  0  0  0  0  0  0  0
    2.1508    4.3803    2.5581 C   0  0  0  0  0  0  0  0  0  0  0  0
    2.2975    3.4987    3.6387 C   0  0  0  0  0  0  0  0  0  0  0  0
    2.0364    2.1581    3.4243 C   0  0  0  0  0  0  0  0  0  0  0  0
    1.6255    1.6767    2.1673 C   0  0  0  0  0  0  0  0  0  0  0  0
    1.3986    0.2427    2.1006 C   0  0  0  0  0  0  0  0  0  0  0  0
    1.6409   -0.5254    3.0106 O   0  0  0  0  0  0  0  0  0  0  0  0
    0.8211   -0.3535    0.7914 C   0  0  0  0  0  0  0  0  0  0  0  0
    0.4713   -1.7217    1.0350 N   0  0  0  0  0  0  0  0  0  0  0  0
   -0.7817   -2.2579    1.0322 C   0  0  0  0  0  0  0  0  0  0  0  0
   -0.6814   -3.5233    1.5211 C   0  0  0  0  0  0  0  0  0  0  0  0
    0.6290   -3.7363    1.8306 N   0  0  0  0  0  0  0  0  0  0  0  0
    1.3067   -2.6301    1.5363 C   0  0  0  0  0  0  0  0  0  0  0  0
    1.1698   -4.9511    2.3773 C   0  0  0  0  0  0  0  0  0  0  0  0
    2.6857    4.0469    4.8053 O   0  0  0  0  0  0  0  0  0  0  0  0
    2.8397    3.2137    5.9344 C   0  0  0  0  0  0  0  0  0  0  0  0
    1.9264    3.4662   -1.4427 H   0  0  0  0  0  0  0  0  0  0  0  0
    0.2090    3.7392   -1.0263 H   0  0  0  0  0  0  0  0  0  0  0  0
    0.6725    2.3620   -2.0530 H   0  0  0  0  0  0  0  0  0  0  0  0
    1.6596    4.6442    0.5209 H   0  0  0  0  0  0  0  0  0  0  0  0
    2.3570    5.4261    2.7199 H   0  0  0  0  0  0  0  0  0  0  0  0
    2.1338    1.4284    4.2120 H   0  0  0  0  0  0  0  0  0  0  0  0
   -0.0584    0.2030    0.4698 H   0  0  0  0  0  0  0  0  0  0  0  0
    1.5864   -0.2728    0.0153 H   0  0  0  0  0  0  0  0  0  0  0  0
   -1.6396   -1.7176    0.6880 H   0  0  0  0  0  0  0  0  0  0  0  0
   -1.4365   -4.2680    1.6694 H   0  0  0  0  0  0  0  0  0  0  0  0
    2.3622   -2.4972    1.6675 H   0  0  0  0  0  0  0  0  0  0  0  0
    2.1890   -4.7807    2.7167 H   0  0  0  0  0  0  0  0  0  0  0  0
    0.5638   -5.2796    3.2214 H   0  0  0  0  0  0  0  0  0  0  0  0
    1.1714   -5.7393    1.6223 H   0  0  0  0  0  0  0  0  0  0  0  0
    1.8981    2.7244    6.1996 H   0  0  0  0  0  0  0  0  0  0  0  0
    3.6134    2.4584    5.7706 H   0  0  0  0  0  0  0  0  0  0  0  0
    3.1445    3.8737    6.7438 H   0  0  0  0  0  0  0  0  0  0  0  0
  1  2  1  0  0  0  0
  2  3  1  0  0  0  0
  3  4  4  0  0  0  0
  4  5  4  0  0  0  0
  5  6  4  0  0  0  0
  6  7  4  0  0  0  0
  3  8  4  0  0  0  0
  7  8  4  0  0  0  0
  8  9  1  0  0  0  0
  9 10  2  0  0  0  0
  9 11  1  0  0  0  0
 11 12  1  0  0  0  0
 12 13  4  0  0  0  0
 13 14  2  0  0  0  0
 14 15  4  0  0  0  0
 12 16  4  0  0  0  0
 15 16  4  0  0  0  0
 15 17  1  0  0  0  0
  6 18  1  0  0  0  0
 18 19  1  0  0  0  0
  1 20  1  0  0  0  0
  1 21  1  0  0  0  0
  1 22  1  0  0  0  0
  4 23  1  0  0  0  0
  5 24  1  0  0  0  0
  7 25  1  0  0  0  0
 11 26  1  0  0  0  0
 11 27  1  0  0  0  0
 13 28  1  0  0  0  0
 14 29  1  0  0  0  0
 16 30  1  0  0  0  0
 17 31  1  0  0  0  0
 17 32  1  0  0  0  0
 17 33  1  0  0  0  0
 19 34  1  0  0  0  0
 19 35  1  0  0  0  0
 19 36  1  0  0  0  0
M  CHG  1   1   1
M  END
