45

C          1.30661       -0.31214       -0.11869
C          1.16039       -0.20156        1.39137
C          1.48450        1.19140        1.94003
C          0.63978        2.34083        1.37708
C         -0.87613        2.17170        1.51831
C         -1.39168        2.12349        2.95940
C         -1.24755        3.41945        3.76455
C         -1.80547        4.72144        3.17175
N         -3.34918        4.92773        3.23318
C         -4.05868        3.94675        2.30337
C         -3.84783        4.78162        4.67745
C         -5.30046        5.21647        4.82982
C         -5.52148        6.64283        4.35356
C         -5.04224        6.82694        2.92285
C         -3.59731        6.37697        2.73955
H          0.57499        0.31152       -0.64077
H          1.14451       -1.34699       -0.43717
H          2.30906       -0.01199       -0.43931
H          0.14770       -0.50033        1.68352
H          1.83979       -0.92370        1.86027
H          1.38813        1.16790        3.03184
H          2.54032        1.41157        1.73701
H          0.95304        3.27410        1.85967
H          0.87511        2.46638        0.31325
H         -1.36845        2.98242        0.97181
H         -1.18840        1.25317        1.00846
H         -2.43539        1.80428        2.94762
H         -0.87001        1.32666        3.50340
H         -1.64251        3.25361        4.77201
H         -0.17194        3.58291        3.91631
H         -1.37690        5.55246        3.74698
H         -1.50252        4.86221        2.12918
H         -3.53375        3.93032        1.34524
H         -4.07383        2.96395        2.77262
H         -5.09122        4.26318        2.14869
H         -3.19379        5.39530        5.30838
H         -3.74321        3.73140        4.96611
H         -5.58776        5.14031        5.88501
H         -5.96193        4.53481        4.28237
H         -6.58467        6.89823        4.42483
H         -4.98293        7.33581        5.01181
H         -5.70691        6.29205        2.23591
H         -5.12238        7.88608        2.65068
H         -3.30137        6.41921        1.68530
H         -2.93458        7.03144        3.31888
