 xtb: 6.7.1 (edcfbbe)
          12202407143D

 17 16  0     0  0            999 V2000
    1.0717    0.0187   -0.0725 C   0  0  0  0  0  0  0  0  0  0  0  0
    0.5803    0.0082    1.3173 N   0  0  0  0  0  0  0  0  0  0  0  0
    1.0718    1.2065    2.0212 C   0  0  0  0  0  0  0  0  0  0  0  0
   -0.8938    0.0081    1.3173 C   0  0  0  0  0  0  0  0  0  0  0  0
    1.0715   -1.2006    2.0031 C   0  0  0  0  0  0  0  0  0  0  0  0
    0.7162    0.9069   -0.5923 H   0  0  0  0  0  0  0  0  0  0  0  0
    0.7164   -0.8616   -0.6056 H   0  0  0  0  0  0  0  0  0  0  0  0
    2.1603    0.0189   -0.0884 H   0  0  0  0  0  0  0  0  0  0  0  0
    0.7164    2.1083    1.5254 H   0  0  0  0  0  0  0  0  0  0  0  0
    0.7164    1.2126    3.0503 H   0  0  0  0  0  0  0  0  0  0  0  0
    2.1604    1.2202    2.0292 H   0  0  0  0  0  0  0  0  0  0  0  0
   -1.2716   -0.8723    0.8001 H   0  0  0  0  0  0  0  0  0  0  0  0
   -1.2717    0.0004    2.3383 H   0  0  0  0  0  0  0  0  0  0  0  0
   -1.2717    0.8962    0.8134 H   0  0  0  0  0  0  0  0  0  0  0  0
    0.7162   -2.0948    1.4937 H   0  0  0  0  0  0  0  0  0  0  0  0
    2.1602   -1.2144    2.0110 H   0  0  0  0  0  0  0  0  0  0  0  0
    0.7161   -1.2221    3.0320 H   0  0  0  0  0  0  0  0  0  0  0  0
  1  2  1  0  0  0  0
  2  3  1  0  0  0  0
  2  4  1  0  0  0  0
  2  5  1  0  0  0  0
  1  6  1  0  0  0  0
  1  7  1  0  0  0  0
  1  8  1  0  0  0  0
  3  9  1  0  0  0  0
  3 10  1  0  0  0  0
  3 11  1  0  0  0  0
  4 12  1  0  0  0  0
  4 13  1  0  0  0  0
  4 14  1  0  0  0  0
  5 15  1  0  0  0  0
  5 16  1  0  0  0  0
  5 17  1  0  0  0  0
M  CHG  1   1   1
M  END
