32

O         -1.67994       -3.20556        1.41801
C         -1.37479       -2.46768        0.34329
O         -0.23389       -2.35257       -0.06405
C         -2.55830       -1.79341       -0.23911
C         -3.84732       -2.29050       -0.01695
C         -4.94782       -1.67148       -0.61496
C         -4.77002       -0.56042       -1.44255
C         -3.49062       -0.05676       -1.67730
C         -2.39501       -0.67359       -1.06785
C         -1.03474       -0.09700       -1.27339
N         -0.24620       -0.32528       -2.33023
C          1.03480        0.09883       -2.07097
C          0.97221        0.78294       -0.85392
N         -0.36226        0.73281       -0.44924
C         -0.92538        1.35840        0.73925
C          2.10420        1.33865       -0.26301
C          3.31087        1.15294       -0.95487
C          3.36693        0.45932       -2.18135
C          2.21788       -0.08170       -2.77565
H         -0.83966       -3.61564        1.71866
H         -4.00845       -3.16627        0.61024
H         -5.94930       -2.06265       -0.43854
H         -5.63863       -0.08835       -1.90041
H         -3.36719        0.81696       -2.31373
H         -0.51578       -0.90714       -3.11468
H         -1.93102        1.72537        0.51532
H         -0.96904        0.62168        1.54502
H         -0.31350        2.20912        1.04932
H          2.06241        1.86155        0.68393
H          4.23428        1.54787       -0.52895
H          4.33176        0.33402       -2.67447
H          2.25011       -0.62433       -3.71209
