 xtb: 6.7.1 (edcfbbe)
          12202407143D

 54 54  0     0  0            999 V2000
    1.4429    0.7621   -0.5847 C   0  0  0  0  0  0  0  0  0  0  0  0
    1.2920    0.6584   -2.0976 C   0  0  0  0  0  0  0  0  0  0  0  0
    1.5771   -0.7446   -2.6377 C   0  0  0  0  0  0  0  0  0  0  0  0
    0.6488   -1.8386   -2.1047 C   0  0  0  0  0  0  0  0  0  0  0  0
   -0.8403   -1.6047   -2.3706 C   0  0  0  0  0  0  0  0  0  0  0  0
   -1.2084   -1.4122   -3.8426 C   0  0  0  0  0  0  0  0  0  0  0  0
   -0.7804   -2.5779   -4.7435 C   0  0  0  0  0  0  0  0  0  0  0  0
   -1.3541   -3.8173   -4.2880 N   0  0  0  0  0  0  0  0  0  0  0  0
   -0.6196   -4.7163   -3.6467 N   0  0  0  0  0  0  0  0  0  0  0  0
   -1.4232   -5.6731   -3.3081 C   0  0  0  0  0  0  0  0  0  0  0  0
   -2.6906   -5.4030   -3.7305 N   0  0  0  0  0  0  0  0  0  0  0  0
   -2.6120   -4.2151   -4.3487 C   0  0  0  0  0  0  0  0  0  0  0  0
   -3.8733   -6.2038   -3.5019 C   0  0  0  0  0  0  0  0  0  0  0  0
   -4.2915   -6.2088   -2.0259 C   0  0  0  0  0  0  0  0  0  0  0  0
   -4.6023   -4.8358   -1.4228 C   0  0  0  0  0  0  0  0  0  0  0  0
   -5.7671   -3.9932   -2.0412 C   0  0  0  0  0  0  0  0  0  0  0  0
   -7.1690   -4.6622   -2.1834 C   0  0  0  0  0  0  0  0  0  0  0  0
   -7.8802   -5.2285   -0.9158 C   0  0  0  0  0  0  0  0  0  0  0  0
   -8.2524   -4.2371    0.2301 C   0  0  0  0  0  0  0  0  0  0  0  0
   -9.2257   -3.0789   -0.1769 C   0  0  0  0  0  0  0  0  0  0  0  0
  -10.2044   -3.5201   -0.9541 F   0  0  0  0  0  0  0  0  0  0  0  0
   -9.7486   -2.5319    0.9018 F   0  0  0  0  0  0  0  0  0  0  0  0
   -8.5539   -2.1437   -0.8441 F   0  0  0  0  0  0  0  0  0  0  0  0
   -8.8174   -4.9538    1.2082 F   0  0  0  0  0  0  0  0  0  0  0  0
   -7.1271   -3.6934    0.7265 F   0  0  0  0  0  0  0  0  0  0  0  0
   -8.9914   -5.8467   -1.3339 F   0  0  0  0  0  0  0  0  0  0  0  0
   -7.0760   -6.1887   -0.4085 F   0  0  0  0  0  0  0  0  0  0  0  0
   -7.9804   -3.7982   -2.8029 F   0  0  0  0  0  0  0  0  0  0  0  0
   -7.0013   -5.7100   -3.0293 F   0  0  0  0  0  0  0  0  0  0  0  0
   -5.8723   -2.8385   -1.3793 F   0  0  0  0  0  0  0  0  0  0  0  0
   -5.3855   -3.6704   -3.3083 F   0  0  0  0  0  0  0  0  0  0  0  0
   -4.8220   -4.9662   -0.1061 F   0  0  0  0  0  0  0  0  0  0  0  0
   -3.4984   -4.0401   -1.5388 F   0  0  0  0  0  0  0  0  0  0  0  0
    0.6809    0.1839   -0.0682 H   0  0  0  0  0  0  0  0  0  0  0  0
    1.3476    1.7980   -0.2704 H   0  0  0  0  0  0  0  0  0  0  0  0
    2.4206    0.4010   -0.2746 H   0  0  0  0  0  0  0  0  0  0  0  0
    0.2887    0.9782   -2.3861 H   0  0  0  0  0  0  0  0  0  0  0  0
    1.9970    1.3467   -2.5682 H   0  0  0  0  0  0  0  0  0  0  0  0
    1.5338   -0.7159   -3.7293 H   0  0  0  0  0  0  0  0  0  0  0  0
    2.5991   -1.0166   -2.3661 H   0  0  0  0  0  0  0  0  0  0  0  0
    0.9555   -2.7981   -2.5280 H   0  0  0  0  0  0  0  0  0  0  0  0
    0.7825   -1.9163   -1.0257 H   0  0  0  0  0  0  0  0  0  0  0  0
   -1.4054   -2.4428   -1.9540 H   0  0  0  0  0  0  0  0  0  0  0  0
   -1.1622   -0.7129   -1.8335 H   0  0  0  0  0  0  0  0  0  0  0  0
   -2.2877   -1.2683   -3.9248 H   0  0  0  0  0  0  0  0  0  0  0  0
   -0.7243   -0.5153   -4.2265 H   0  0  0  0  0  0  0  0  0  0  0  0
   -1.0987   -2.3936   -5.7717 H   0  0  0  0  0  0  0  0  0  0  0  0
    0.3018   -2.7057   -4.7107 H   0  0  0  0  0  0  0  0  0  0  0  0
   -1.1231   -6.5550   -2.7795 H   0  0  0  0  0  0  0  0  0  0  0  0
   -3.4256   -3.6884   -4.8080 H   0  0  0  0  0  0  0  0  0  0  0  0
   -4.6752   -5.8326   -4.1421 H   0  0  0  0  0  0  0  0  0  0  0  0
   -3.6558   -7.2365   -3.7888 H   0  0  0  0  0  0  0  0  0  0  0  0
   -5.1554   -6.8612   -1.8980 H   0  0  0  0  0  0  0  0  0  0  0  0
   -3.4841   -6.6108   -1.4061 H   0  0  0  0  0  0  0  0  0  0  0  0
  1  2  1  0  0  0  0
  2  3  1  0  0  0  0
  3  4  1  0  0  0  0
  4  5  1  0  0  0  0
  5  6  1  0  0  0  0
  6  7  1  0  0  0  0
  7  8  1  0  0  0  0
  8  9  4  0  0  0  0
  9 10  2  0  0  0  0
 10 11  4  0  0  0  0
  8 12  4  0  0  0  0
 11 12  4  0  0  0  0
 11 13  1  0  0  0  0
 13 14  1  0  0  0  0
 14 15  1  0  0  0  0
 15 16  1  0  0  0  0
 16 17  1  0  0  0  0
 17 18  1  0  0  0  0
 18 19  1  0  0  0  0
 19 20  1  0  0  0  0
 20 21  1  0  0  0  0
 20 22  1  0  0  0  0
 20 23  1  0  0  0  0
 19 24  1  0  0  0  0
 19 25  1  0  0  0  0
 18 26  1  0  0  0  0
 18 27  1  0  0  0  0
 17 28  1  0  0  0  0
 17 29  1  0  0  0  0
 16 30  1  0  0  0  0
 16 31  1  0  0  0  0
 15 32  1  0  0  0  0
 15 33  1  0  0  0  0
  1 34  1  0  0  0  0
  1 35  1  0  0  0  0
  1 36  1  0  0  0  0
  2 37  1  0  0  0  0
  2 38  1  0  0  0  0
  3 39  1  0  0  0  0
  3 40  1  0  0  0  0
  4 41  1  0  0  0  0
  4 42  1  0  0  0  0
  5 43  1  0  0  0  0
  5 44  1  0  0  0  0
  6 45  1  0  0  0  0
  6 46  1  0  0  0  0
  7 47  1  0  0  0  0
  7 48  1  0  0  0  0
 10 49  1  0  0  0  0
 12 50  1  0  0  0  0
 13 51  1  0  0  0  0
 13 52  1  0  0  0  0
 14 53  1  0  0  0  0
 14 54  1  0  0  0  0
M  CHG  1   1   1
M  END
