20

C          0.63516        0.26733       -0.06213
N          0.31551        1.68139       -0.16904
C          1.17073        2.75504        0.10213
C          0.46306        3.91238       -0.12127
N         -0.78163        3.50592       -0.51079
C         -0.86330        2.18183       -0.53576
C         -2.19082        1.68477       -0.95238
C         -3.01115        2.98709       -1.11282
C         -2.01405        4.16400       -0.90408
H          0.22493       -0.26195       -0.92630
H          0.19261       -0.12523        0.85697
H          1.71917        0.12832       -0.03757
H          2.17912        2.55081        0.41977
H          0.68704        4.96183       -0.05205
H         -2.57242        1.03325       -0.16460
H         -2.05715        1.15118       -1.89518
H         -3.80400        3.02846       -0.35790
H         -3.49265        3.03994       -2.09439
H         -1.84790        4.71625       -1.83320
H         -2.34700        4.84082       -0.11279
