33

C          1.14525        0.15041       -0.75605
C          0.17174        1.00724        0.05822
C          0.65805        2.45846        0.20656
C          0.57339        3.29770       -1.07507
C         -0.84521        3.73520       -1.45271
C         -1.36859        4.86348       -0.57659
N          0.49590       -0.60512       -1.86516
C          0.83449       -1.90310       -2.06005
C          0.35195       -2.61943       -3.15718
C         -0.49087       -1.97430       -4.06023
C         -0.83236       -0.64787       -3.84962
C         -0.31349        0.02347       -2.75240
C          0.80637       -4.02586       -3.41484
H          1.61373       -0.58173       -0.08714
H          1.94693        0.72960       -1.22627
H         -0.85294        0.97688       -0.32261
H          0.11767        0.58028        1.06864
H          0.09157        2.94492        1.00796
H          1.70328        2.44262        0.54140
H          1.19870        4.19085       -0.95324
H          1.00858        2.74147       -1.91242
H         -0.83579        4.08576       -2.49191
H         -1.54126        2.89151       -1.41229
H         -0.71110        5.73714       -0.63218
H         -2.36394        5.17008       -0.91358
H         -1.44870        4.55796        0.47017
H          1.52008       -2.35504       -1.34704
H         -0.87147       -2.49706       -4.93767
H         -1.48362       -0.13027       -4.55189
H         -0.53439        1.07060       -2.59011
H          0.03058       -4.59858       -3.93348
H          1.70995       -4.01565       -4.03310
H          1.02619       -4.54501       -2.47649
