 xtb: 6.7.1 (edcfbbe)
          12202407143D

 20 21  0     0  0            999 V2000
    0.6402    0.2841   -0.0332 C   0  0  0  0  0  0  0  0  0  0  0  0
    0.3048    1.6784   -0.1608 N   0  0  0  0  0  0  0  0  0  0  0  0
    1.1258    2.7349    0.1385 C   0  0  0  0  0  0  0  0  0  0  0  0
    0.4367    3.8884   -0.0922 C   0  0  0  0  0  0  0  0  0  0  0  0
   -0.7961    3.5114   -0.5209 N   0  0  0  0  0  0  0  0  0  0  0  0
   -0.8611    2.1819   -0.5567 C   0  0  0  0  0  0  0  0  0  0  0  0
   -2.1689    1.6939   -1.0467 C   0  0  0  0  0  0  0  0  0  0  0  0
   -3.0143    2.9893   -1.0040 C   0  0  0  0  0  0  0  0  0  0  0  0
   -2.0039    4.1557   -0.9789 C   0  0  0  0  0  0  0  0  0  0  0  0
    0.2177   -0.2798   -0.8637 H   0  0  0  0  0  0  0  0  0  0  0  0
    0.2468   -0.1191    0.9019 H   0  0  0  0  0  0  0  0  0  0  0  0
    1.7220    0.1695   -0.0356 H   0  0  0  0  0  0  0  0  0  0  0  0
    2.1274    2.5931    0.4898 H   0  0  0  0  0  0  0  0  0  0  0  0
    0.7370    4.9095    0.0213 H   0  0  0  0  0  0  0  0  0  0  0  0
   -2.5901    0.9026   -0.4281 H   0  0  0  0  0  0  0  0  0  0  0  0
   -2.0732    1.3062   -2.0648 H   0  0  0  0  0  0  0  0  0  0  0  0
   -3.6167    3.0032   -0.0964 H   0  0  0  0  0  0  0  0  0  0  0  0
   -3.6871    3.0618   -1.8542 H   0  0  0  0  0  0  0  0  0  0  0  0
   -1.8382    4.5796   -1.9738 H   0  0  0  0  0  0  0  0  0  0  0  0
   -2.3034    4.9586   -0.3047 H   0  0  0  0  0  0  0  0  0  0  0  0
  1  2  1  0  0  0  0
  2  3  4  0  0  0  0
  3  4  2  0  0  0  0
  4  5  4  0  0  0  0
  2  6  4  0  0  0  0
  5  6  4  0  0  0  0
  6  7  1  0  0  0  0
  7  8  1  0  0  0  0
  5  9  1  0  0  0  0
  8  9  1  0  0  0  0
  1 10  1  0  0  0  0
  1 11  1  0  0  0  0
  1 12  1  0  0  0  0
  3 13  1  0  0  0  0
  4 14  1  0  0  0  0
  7 15  1  0  0  0  0
  7 16  1  0  0  0  0
  8 17  1  0  0  0  0
  8 18  1  0  0  0  0
  9 19  1  0  0  0  0
  9 20  1  0  0  0  0
M  CHG  1   1   1
M  END
