54

C          1.00832        0.15279        0.13942
C          0.77201       -0.04414        1.62932
C          1.11765        1.18538        2.47483
C          0.37275        2.47624        2.10607
C         -1.16332        2.41250        2.26344
C         -1.59027        2.30969        3.71606
C         -1.43780        3.38841        4.60177
C         -1.82027        3.26829        5.93919
C         -2.35180        2.06993        6.40946
C         -2.50431        0.99043        5.54330
C         -2.12824        1.10880        4.20444
C         -1.88646        3.55623        1.55000
O         -3.07081        3.53107        1.23319
O         -1.05568        4.59313        1.24645
C         -1.66046        5.76784        0.67932
C         -1.04334        6.10923       -0.68707
N         -1.49688        5.23288       -1.89148
C         -3.04322        5.12080       -2.00406
C         -3.74702        6.46205       -2.13560
C         -0.95121        5.84687       -3.21151
C          0.56615        5.80878       -3.32905
C         -0.96262        3.80157       -1.75437
H          0.31697        0.88813       -0.28299
H          0.85183       -0.79035       -0.39391
H          2.03234        0.48642       -0.05581
H         -0.26714       -0.34605        1.79651
H          1.39259       -0.88097        1.97207
H          0.94442        0.94732        3.53080
H          2.19417        1.37802        2.38182
H          0.77770        3.28860        2.72422
H          0.62907        2.74075        1.07279
H         -1.50956        1.52261        1.72159
H         -1.01557        4.33275        4.26676
H         -1.70012        4.10823        6.61925
H         -2.64485        1.97554        7.45234
H         -2.91483        0.05354        5.91265
H         -2.25457        0.24827        3.55072
H         -2.75245        5.72894        0.64840
H         -1.40999        6.58352        1.36776
H         -1.28542        7.14400       -0.95110
H          0.04520        6.01094       -0.62467
H         -3.25253        4.49702       -2.88131
H         -3.40417        4.58514       -1.12265
H         -3.47611        6.98024       -3.05929
H         -4.83006        6.30095       -2.16730
H         -3.54409        7.12453       -1.29047
H         -1.40489        5.28805       -4.03798
H         -1.29401        6.88508       -3.25556
H          0.95640        4.78735       -3.33058
H          0.86678        6.26622       -4.27796
H          1.05770        6.37160       -2.53153
H         -1.05714        3.30382       -2.72443
H          0.08261        3.83888       -1.43701
H         -1.56148        3.26329       -1.02017
