25

F          2.18837        0.48879        0.04306
C          0.86681        0.28015        0.05300
C          0.37426       -0.98018        0.36504
C         -1.00458       -1.20155        0.37476
C         -1.89540       -0.15664        0.07132
C         -1.37458        1.11211       -0.23923
C          0.00531        1.32712       -0.24723
C         -3.38362       -0.39970        0.05170
N         -3.81892       -0.86757       -1.28704
C         -3.86398       -2.19438       -1.55361
C         -4.27048       -2.65384       -2.80091
C         -4.63377       -1.73809       -3.77902
C         -4.58365       -0.38059       -3.49266
C         -4.17083        0.03585       -2.23240
H          1.07180       -1.77905        0.60316
H         -1.36287       -2.19610        0.63385
H         -2.02662        1.95337       -0.46727
H          0.41879        2.30492       -0.48045
H         -3.67457       -1.15448        0.79181
H         -3.94272        0.51223        0.29268
H         -3.57042       -2.88051       -0.76450
H         -4.30211       -3.72101       -3.01102
H         -4.95298       -2.08133       -4.76253
H         -4.86300        0.34948       -4.24959
H         -4.11635        1.08899       -1.97248
