58

C          0.88728       -0.05475        0.29694
C          0.78844        1.41966        0.65693
C          1.35862        2.34930       -0.41848
C          0.67890        2.27153       -1.79162
C         -0.83129        2.52931       -1.79232
C         -1.24035        3.92968       -1.32740
C         -0.93274        5.05820       -2.32466
C         -1.73006        5.00717       -3.64053
C         -3.22508        4.97816       -3.41551
C         -3.87685        6.07319       -2.84369
C         -5.21821        5.97660       -2.46741
C         -5.94437        4.79119       -2.66987
C         -5.30713        3.72494       -3.31532
C         -3.96007        3.81963       -3.68426
N         -7.33852        4.67251       -2.07065
C         -8.25362        5.77857       -2.67901
C         -8.90721        6.72663       -1.70281
C         -8.40337        8.02447       -1.52461
C         -8.97685        8.88501       -0.58750
C        -10.05940        8.46149        0.17925
C        -10.58192        7.18317        0.00008
C        -10.01634        6.32210       -0.94145
C         -7.15924        4.75430       -0.54643
C         -7.97924        3.32068       -2.36971
H          0.26377       -0.30029       -0.56767
H          0.54725       -0.67050        1.13587
H          1.92087       -0.33412        0.06952
H         -0.25454        1.67563        0.87297
H          1.34381        1.58751        1.58769
H          1.31750        3.37970       -0.04690
H          2.42420        2.12294       -0.55023
H          1.17192        2.98260       -2.46464
H          0.86038        1.28038       -2.22419
H         -1.21727        2.34219       -2.80024
H         -1.32466        1.79055       -1.15030
H         -2.31359        3.92023       -1.10409
H         -0.75523        4.16398       -0.37365
H         -1.13876        6.01219       -1.82218
H          0.13767        5.06840       -2.55890
H         -1.48568        5.88960       -4.24546
H         -1.41657        4.14183       -4.23601
H         -3.32646        6.99083       -2.63875
H         -5.65863        6.83630       -1.97181
H         -5.79447        2.77815       -3.51910
H         -3.47154        2.95820       -4.13990
H         -7.67908        6.33825       -3.42791
H         -9.04332        5.27531       -3.25300
H         -7.56611        8.39004       -2.11606
H         -8.58467        9.89192       -0.45664
H        -10.50481        9.13453        0.90938
H        -11.43606        6.86295        0.59382
H        -10.45155        5.33250       -1.06487
H         -6.81562        5.75228       -0.26138
H         -8.11424        4.52429       -0.06649
H         -6.42033        4.00285       -0.24498
H         -8.06389        3.19408       -3.45397
H         -7.37812        2.52515       -1.91718
H         -8.97829        3.31136       -1.92113
