 xtb: 6.7.1 (edcfbbe)
          12202407153D

 22 22  0     0  0            999 V2000
    1.2331    0.1251    0.0801 C   0  0  0  0  0  0  0  0  0  0  0  0
    0.5088    1.3837    0.3438 N   0  0  0  0  0  0  0  0  0  0  0  0
   -0.9377    1.0991    0.2913 C   0  0  0  0  0  0  0  0  0  0  0  0
    0.9047    1.9021    1.6849 C   0  0  0  0  0  0  0  0  0  0  0  0
    0.3975    3.3292    1.9298 C   0  0  0  0  0  0  0  0  0  0  0  0
    0.8485    4.1963    0.9244 O   0  0  0  0  0  0  0  0  0  0  0  0
    0.3875    3.7987   -0.3387 C   0  0  0  0  0  0  0  0  0  0  0  0
    0.8942    2.3925   -0.6847 C   0  0  0  0  0  0  0  0  0  0  0  0
    0.9668   -0.2604   -0.9028 H   0  0  0  0  0  0  0  0  0  0  0  0
    0.9744   -0.6193    0.8313 H   0  0  0  0  0  0  0  0  0  0  0  0
    2.3092    0.2881    0.1091 H   0  0  0  0  0  0  0  0  0  0  0  0
   -1.2030    0.7121   -0.6911 H   0  0  0  0  0  0  0  0  0  0  0  0
   -1.1953    0.3534    1.0416 H   0  0  0  0  0  0  0  0  0  0  0  0
   -1.5227    1.9954    0.4794 H   0  0  0  0  0  0  0  0  0  0  0  0
    1.9961    1.9182    1.7272 H   0  0  0  0  0  0  0  0  0  0  0  0
    0.5288    1.2289    2.4561 H   0  0  0  0  0  0  0  0  0  0  0  0
    0.8164    3.6999    2.8670 H   0  0  0  0  0  0  0  0  0  0  0  0
   -0.6986    3.3566    2.0069 H   0  0  0  0  0  0  0  0  0  0  0  0
   -0.7092    3.8525   -0.3893 H   0  0  0  0  0  0  0  0  0  0  0  0
    0.7990    4.5117   -1.0553 H   0  0  0  0  0  0  0  0  0  0  0  0
    0.5106    2.0801   -1.6565 H   0  0  0  0  0  0  0  0  0  0  0  0
    1.9852    2.4260   -0.7264 H   0  0  0  0  0  0  0  0  0  0  0  0
  1  2  1  0  0  0  0
  2  3  1  0  0  0  0
  2  4  1  0  0  0  0
  4  5  1  0  0  0  0
  5  6  1  0  0  0  0
  6  7  1  0  0  0  0
  2  8  1  0  0  0  0
  7  8  1  0  0  0  0
  1  9  1  0  0  0  0
  1 10  1  0  0  0  0
  1 11  1  0  0  0  0
  3 12  1  0  0  0  0
  3 13  1  0  0  0  0
  3 14  1  0  0  0  0
  4 15  1  0  0  0  0
  4 16  1  0  0  0  0
  5 17  1  0  0  0  0
  5 18  1  0  0  0  0
  7 19  1  0  0  0  0
  7 20  1  0  0  0  0
  8 21  1  0  0  0  0
  8 22  1  0  0  0  0
M  CHG  1   1   1
M  END
