 xtb: 6.7.1 (edcfbbe)
          12202407153D

 16 16  0     0  0            999 V2000
    1.0292    0.0762   -0.0901 C   0  0  0  0  0  0  0  0  0  0  0  0
    0.6809    1.1326   -0.9932 N   0  0  0  0  0  0  0  0  0  0  0  0
    0.0678    0.8918   -2.1414 N   0  0  0  0  0  0  0  0  0  0  0  0
   -0.1209    1.9703   -2.7482 N   0  0  0  0  0  0  0  0  0  0  0  0
    0.3572    2.9686   -2.0043 N   0  0  0  0  0  0  0  0  0  0  0  0
    0.8711    2.4583   -0.8691 C   0  0  0  0  0  0  0  0  0  0  0  0
    1.4914    3.2079    0.2281 C   0  0  0  0  0  0  0  0  0  0  0  0
    0.2069    4.2642   -2.3434 N   0  0  0  0  0  0  0  0  0  0  0  0
    0.7167   -0.8607   -0.5479 H   0  0  0  0  0  0  0  0  0  0  0  0
    0.5140    0.2026    0.8627 H   0  0  0  0  0  0  0  0  0  0  0  0
    2.1057    0.0581    0.0803 H   0  0  0  0  0  0  0  0  0  0  0  0
    2.5293    3.4517   -0.0062 H   0  0  0  0  0  0  0  0  0  0  0  0
    0.9546    4.1416    0.3904 H   0  0  0  0  0  0  0  0  0  0  0  0
    1.4824    2.6244    1.1448 H   0  0  0  0  0  0  0  0  0  0  0  0
    1.0412    4.8341   -2.2565 H   0  0  0  0  0  0  0  0  0  0  0  0
   -0.2530    4.3567   -3.2439 H   0  0  0  0  0  0  0  0  0  0  0  0
  1  2  1  0  0  0  0
  2  3  4  0  0  0  0
  3  4  2  0  0  0  0
  4  5  1  0  0  0  0
  2  6  4  0  0  0  0
  5  6  4  0  0  0  0
  6  7  1  0  0  0  0
  5  8  1  0  0  0  0
  1  9  1  0  0  0  0
  1 10  1  0  0  0  0
  1 11  1  0  0  0  0
  7 12  1  0  0  0  0
  7 13  1  0  0  0  0
  7 14  1  0  0  0  0
  8 15  1  0  0  0  0
  8 16  1  0  0  0  0
M  CHG  1   1   1
M  END
