50

C          0.99427        0.69742        0.20909
C          0.83047        0.55762       -1.29668
C          1.20346       -0.83062       -1.82221
C          0.35663       -1.98753       -1.28141
C         -1.14248       -1.90731       -1.59196
C         -1.50739       -1.86479       -3.08115
C         -0.96869       -3.02487       -3.92692
C         -1.39458       -4.42545       -3.46577
C         -2.90876       -4.73495       -3.54357
C         -3.58028       -4.53508       -4.92849
N         -3.32219       -5.52550       -6.08369
C         -3.99547       -6.87760       -5.86834
C         -3.96741       -4.90437       -7.34065
C         -1.85231       -5.74214       -6.39162
C         -3.24409       -6.08346       -2.87704
C         -3.14017       -6.04901       -1.35493
H          0.28423        0.06554        0.75049
H          0.81372        1.73360        0.51255
H          2.00790        0.42575        0.52077
H         -0.19627        0.81275       -1.57980
H          1.47851        1.29550       -1.78509
H          1.15090       -0.81704       -2.91699
H          2.25406       -1.02946       -1.57495
H          0.76105       -2.92623       -1.67810
H          0.48344       -2.05467       -0.19444
H         -1.63917       -2.76530       -1.12311
H         -1.56871       -1.02290       -1.10380
H         -2.59943       -1.82546       -3.17034
H         -1.14399       -0.92463       -3.51320
H         -1.26314       -2.86507       -4.96934
H          0.12719       -2.98492       -3.93010
H         -0.82482       -5.16274       -4.03488
H         -1.04956       -4.55938       -2.43527
H         -3.39388       -3.97536       -2.91342
H         -4.66935       -4.53276       -4.78580
H         -3.32286       -3.54207       -5.31326
H         -5.02852       -6.70978       -5.55316
H         -3.97306       -7.43024       -6.81346
H         -3.43941       -7.44402       -5.12165
H         -3.47539       -3.94892       -7.54541
H         -3.82666       -5.58974       -8.18246
H         -5.03359       -4.75873       -7.14268
H         -1.36098       -4.76916       -6.46176
H         -1.41673       -6.36498       -5.60848
H         -1.77113       -6.27183       -7.34666
H         -4.27337       -6.36909       -3.12231
H         -2.57711       -6.86799       -3.24878
H         -3.77986       -5.26574       -0.93550
H         -3.46584       -7.00722       -0.93712
H         -2.11456       -5.87440       -1.01951
