 xtb: 6.7.1 (edcfbbe)
          12202407153D

 43 43  0     0  0            999 V2000
   -0.4046   -0.5603    0.6150 C   0  0  0  0  0  0  0  0  0  0  0  0
   -0.1197    0.7671   -0.0775 C   0  0  0  0  0  0  0  0  0  0  0  0
    0.8731    0.6462   -1.2355 C   0  0  0  0  0  0  0  0  0  0  0  0
    0.4256   -0.2657   -2.3809 C   0  0  0  0  0  0  0  0  0  0  0  0
   -0.8310    0.2113   -3.1190 C   0  0  0  0  0  0  0  0  0  0  0  0
   -0.6281    1.5011   -3.9209 C   0  0  0  0  0  0  0  0  0  0  0  0
   -0.3860    1.3487   -5.3956 N   0  0  0  0  0  0  0  0  0  0  0  0
    0.0236    2.6791   -5.9249 C   0  0  0  0  0  0  0  0  0  0  0  0
   -0.7438    3.3412   -6.8724 C   0  0  0  0  0  0  0  0  0  0  0  0
   -0.3605    4.5719   -7.3779 C   0  0  0  0  0  0  0  0  0  0  0  0
    0.8082    5.1606   -6.9380 C   0  0  0  0  0  0  0  0  0  0  0  0
    1.5853    4.5201   -5.9928 C   0  0  0  0  0  0  0  0  0  0  0  0
    1.2148    3.2839   -5.4714 C   0  0  0  0  0  0  0  0  0  0  0  0
    1.9537    2.6321   -4.5317 O   0  0  0  0  0  0  0  0  0  0  0  0
    3.1556    3.2129   -4.0534 C   0  0  0  0  0  0  0  0  0  0  0  0
   -1.6235    0.8496   -6.0250 C   0  0  0  0  0  0  0  0  0  0  0  0
    0.6848    0.3767   -5.7036 C   0  0  0  0  0  0  0  0  0  0  0  0
   -0.9459   -1.2429   -0.0353 H   0  0  0  0  0  0  0  0  0  0  0  0
   -1.0099   -0.3948    1.5022 H   0  0  0  0  0  0  0  0  0  0  0  0
    0.5238   -1.0364    0.9213 H   0  0  0  0  0  0  0  0  0  0  0  0
   -1.0564    1.2084   -0.4245 H   0  0  0  0  0  0  0  0  0  0  0  0
    0.3063    1.4577    0.6527 H   0  0  0  0  0  0  0  0  0  0  0  0
    1.0885    1.6481   -1.6159 H   0  0  0  0  0  0  0  0  0  0  0  0
    1.8092    0.2451   -0.8422 H   0  0  0  0  0  0  0  0  0  0  0  0
    1.2562   -0.3694   -3.0806 H   0  0  0  0  0  0  0  0  0  0  0  0
    0.2223   -1.2565   -1.9750 H   0  0  0  0  0  0  0  0  0  0  0  0
   -1.1986   -0.5999   -3.7474 H   0  0  0  0  0  0  0  0  0  0  0  0
   -1.6092    0.3987   -2.3794 H   0  0  0  0  0  0  0  0  0  0  0  0
   -1.5014    2.1499   -3.8299 H   0  0  0  0  0  0  0  0  0  0  0  0
    0.2281    2.0256   -3.5015 H   0  0  0  0  0  0  0  0  0  0  0  0
   -1.6602    2.9209   -7.2464 H   0  0  0  0  0  0  0  0  0  0  0  0
   -0.9793    5.0587   -8.1131 H   0  0  0  0  0  0  0  0  0  0  0  0
    1.1200    6.1171   -7.3247 H   0  0  0  0  0  0  0  0  0  0  0  0
    2.4939    4.9897   -5.6562 H   0  0  0  0  0  0  0  0  0  0  0  0
    2.9690    4.1734   -3.5688 H   0  0  0  0  0  0  0  0  0  0  0  0
    3.5387    2.5066   -3.3188 H   0  0  0  0  0  0  0  0  0  0  0  0
    3.8860    3.3328   -4.8561 H   0  0  0  0  0  0  0  0  0  0  0  0
   -2.4559    1.5210   -5.8252 H   0  0  0  0  0  0  0  0  0  0  0  0
   -1.4853    0.7380   -7.0985 H   0  0  0  0  0  0  0  0  0  0  0  0
   -1.8689   -0.1259   -5.6114 H   0  0  0  0  0  0  0  0  0  0  0  0
    1.6019    0.6606   -5.1961 H   0  0  0  0  0  0  0  0  0  0  0  0
    0.3924   -0.6209   -5.3866 H   0  0  0  0  0  0  0  0  0  0  0  0
    0.8610    0.3707   -6.7784 H   0  0  0  0  0  0  0  0  0  0  0  0
  1  2  1  0  0  0  0
  2  3  1  0  0  0  0
  3  4  1  0  0  0  0
  4  5  1  0  0  0  0
  5  6  1  0  0  0  0
  6  7  1  0  0  0  0
  7  8  1  0  0  0  0
  8  9  4  0  0  0  0
  9 10  4  0  0  0  0
 10 11  4  0  0  0  0
 11 12  4  0  0  0  0
  8 13  4  0  0  0  0
 12 13  4  0  0  0  0
 13 14  1  0  0  0  0
 14 15  1  0  0  0  0
  7 16  1  0  0  0  0
  7 17  1  0  0  0  0
  1 18  1  0  0  0  0
  1 19  1  0  0  0  0
  1 20  1  0  0  0  0
  2 21  1  0  0  0  0
  2 22  1  0  0  0  0
  3 23  1  0  0  0  0
  3 24  1  0  0  0  0
  4 25  1  0  0  0  0
  4 26  1  0  0  0  0
  5 27  1  0  0  0  0
  5 28  1  0  0  0  0
  6 29  1  0  0  0  0
  6 30  1  0  0  0  0
  9 31  1  0  0  0  0
 10 32  1  0  0  0  0
 11 33  1  0  0  0  0
 12 34  1  0  0  0  0
 15 35  1  0  0  0  0
 15 36  1  0  0  0  0
 15 37  1  0  0  0  0
 16 38  1  0  0  0  0
 16 39  1  0  0  0  0
 16 40  1  0  0  0  0
 17 41  1  0  0  0  0
 17 42  1  0  0  0  0
 17 43  1  0  0  0  0
M  CHG  1   1   1
M  END
