16

C          1.01667        0.06325       -0.07358
N          0.67109        1.14062       -0.96564
N          0.01166        0.85581       -2.11790
N         -0.20890        1.95023       -2.73111
N          0.32388        2.95262       -1.99765
C          0.85736        2.46132       -0.86858
C          1.49981        3.21939        0.23163
N          0.21815        4.31224       -2.39712
H          0.71464       -0.90069       -0.49243
H          0.50817        0.21550        0.88200
H          2.09869        0.06361        0.08176
H          2.37795        3.71354       -0.18615
H          0.77001        3.94304        0.59716
H          1.78225        2.51992        1.01843
H          1.01330        4.88451       -2.12338
H          0.01972        4.38365       -3.39515
