22

C          1.25955        0.07856        0.07034
N          0.50011        1.37535        0.34211
C         -0.99152        1.07291        0.28613
C          0.91368        1.91236        1.73463
C          0.40798        3.34374        1.95932
O          0.86813        4.22394        0.92999
C          0.39760        3.82374       -0.36014
C          0.90277        2.42168       -0.72632
H          0.97713       -0.28402       -0.92245
H          0.98438       -0.64905        0.83957
H          2.33306        0.28541        0.10877
H         -1.22675        0.68673       -0.71007
H         -1.21891        0.32243        1.04899
H         -1.55879        1.98521        0.47760
H          2.00971        1.90273        1.75233
H          0.52797        1.21894        2.48908
H          0.79903        3.71945        2.91038
H         -0.68458        3.38971        2.01891
H         -0.69535        3.88756       -0.38719
H          0.78107        4.54677       -1.08730
H          0.50948        2.08398       -1.69074
H          1.99859        2.42184       -0.75567
