 xtb: 6.7.1 (edcfbbe)
          12202407153D

 53 55  0     0  0            999 V2000
    1.1422    0.5261    0.0223 C   0  0  0  0  0  0  0  0  0  0  0  0
    1.3236   -0.5560   -0.9599 N   0  0  0  0  0  0  0  0  0  0  0  0
    1.4474   -1.8732   -0.2389 C   0  0  0  0  0  0  0  0  0  0  0  0
    0.2619   -2.2277    0.6226 C   0  0  0  0  0  0  0  0  0  0  0  0
   -0.7744   -3.0053    0.1124 C   0  0  0  0  0  0  0  0  0  0  0  0
   -1.8502   -3.3524    0.9095 C   0  0  0  0  0  0  0  0  0  0  0  0
   -1.8998   -2.9348    2.2282 C   0  0  0  0  0  0  0  0  0  0  0  0
   -0.8701   -2.1699    2.7479 C   0  0  0  0  0  0  0  0  0  0  0  0
    0.2059   -1.8205    1.9518 C   0  0  0  0  0  0  0  0  0  0  0  0
    0.1580   -0.6350   -1.8861 C   0  0  0  0  0  0  0  0  0  0  0  0
   -0.2834    0.6752   -2.5319 C   0  0  0  0  0  0  0  0  0  0  0  0
   -1.4191    0.4288   -3.5348 C   0  0  0  0  0  0  0  0  0  0  0  0
   -2.5683   -0.4081   -2.9567 C   0  0  0  0  0  0  0  0  0  0  0  0
   -2.7316   -0.0748   -1.5947 O   0  0  0  0  0  0  0  0  0  0  0  0
   -3.6420   -0.7797   -0.8488 C   0  0  0  0  0  0  0  0  0  0  0  0
   -4.5037   -1.7205   -1.3508 C   0  0  0  0  0  0  0  0  0  0  0  0
   -5.3836   -2.4010   -0.4940 C   0  0  0  0  0  0  0  0  0  0  0  0
   -5.3954   -2.1489    0.8467 C   0  0  0  0  0  0  0  0  0  0  0  0
   -4.5202   -1.1891    1.3978 C   0  0  0  0  0  0  0  0  0  0  0  0
   -3.6279   -0.4916    0.5458 C   0  0  0  0  0  0  0  0  0  0  0  0
   -2.7571    0.4650    1.1031 C   0  0  0  0  0  0  0  0  0  0  0  0
   -2.7570    0.7145    2.4473 C   0  0  0  0  0  0  0  0  0  0  0  0
   -3.6382    0.0255    3.2928 C   0  0  0  0  0  0  0  0  0  0  0  0
   -4.5025   -0.8997    2.7780 C   0  0  0  0  0  0  0  0  0  0  0  0
    2.5680   -0.3232   -1.7127 C   0  0  0  0  0  0  0  0  0  0  0  0
    0.1850    0.4099    0.5286 H   0  0  0  0  0  0  0  0  0  0  0  0
    1.1757    1.4933   -0.4730 H   0  0  0  0  0  0  0  0  0  0  0  0
    1.9409    0.4897    0.7609 H   0  0  0  0  0  0  0  0  0  0  0  0
    1.5933   -2.6466   -0.9962 H   0  0  0  0  0  0  0  0  0  0  0  0
    2.3461   -1.8213    0.3796 H   0  0  0  0  0  0  0  0  0  0  0  0
   -0.7304   -3.3669   -0.9053 H   0  0  0  0  0  0  0  0  0  0  0  0
   -2.6467   -3.9546    0.5022 H   0  0  0  0  0  0  0  0  0  0  0  0
   -2.7325   -3.2149    2.8522 H   0  0  0  0  0  0  0  0  0  0  0  0
   -0.8978   -1.8522    3.7779 H   0  0  0  0  0  0  0  0  0  0  0  0
    1.0159   -1.2478    2.3791 H   0  0  0  0  0  0  0  0  0  0  0  0
    0.4049   -1.3601   -2.6651 H   0  0  0  0  0  0  0  0  0  0  0  0
   -0.6814   -1.0108   -1.2996 H   0  0  0  0  0  0  0  0  0  0  0  0
   -0.6643    1.3555   -1.7722 H   0  0  0  0  0  0  0  0  0  0  0  0
    0.5343    1.1612   -3.0654 H   0  0  0  0  0  0  0  0  0  0  0  0
   -1.8015    1.4018   -3.8417 H   0  0  0  0  0  0  0  0  0  0  0  0
   -1.0418   -0.0782   -4.4234 H   0  0  0  0  0  0  0  0  0  0  0  0
   -3.4861   -0.2029   -3.5200 H   0  0  0  0  0  0  0  0  0  0  0  0
   -2.3446   -1.4808   -3.0498 H   0  0  0  0  0  0  0  0  0  0  0  0
   -4.5350   -1.9468   -2.4046 H   0  0  0  0  0  0  0  0  0  0  0  0
   -6.0555   -3.1303   -0.9199 H   0  0  0  0  0  0  0  0  0  0  0  0
   -6.0745   -2.6739    1.5007 H   0  0  0  0  0  0  0  0  0  0  0  0
   -2.1101    1.0186    0.4387 H   0  0  0  0  0  0  0  0  0  0  0  0
   -2.0900    1.4544    2.8653 H   0  0  0  0  0  0  0  0  0  0  0  0
   -3.6356    0.2409    4.3505 H   0  0  0  0  0  0  0  0  0  0  0  0
   -5.1935   -1.4229    3.4226 H   0  0  0  0  0  0  0  0  0  0  0  0
    2.5077    0.6151   -2.2596 H   0  0  0  0  0  0  0  0  0  0  0  0
    3.4161   -0.2723   -1.0320 H   0  0  0  0  0  0  0  0  0  0  0  0
    2.7383   -1.1314   -2.4219 H   0  0  0  0  0  0  0  0  0  0  0  0
  1  2  1  0  0  0  0
  2  3  1  0  0  0  0
  3  4  1  0  0  0  0
  4  5  4  0  0  0  0
  5  6  4  0  0  0  0
  6  7  4  0  0  0  0
  7  8  4  0  0  0  0
  4  9  4  0  0  0  0
  8  9  4  0  0  0  0
  2 10  1  0  0  0  0
 10 11  1  0  0  0  0
 11 12  1  0  0  0  0
 12 13  1  0  0  0  0
 13 14  1  0  0  0  0
 14 15  1  0  0  0  0
 15 16  4  0  0  0  0
 16 17  4  0  0  0  0
 17 18  2  0  0  0  0
 18 19  4  0  0  0  0
 15 20  4  0  0  0  0
 19 20  4  0  0  0  0
 20 21  4  0  0  0  0
 21 22  2  0  0  0  0
 22 23  4  0  0  0  0
 19 24  4  0  0  0  0
 23 24  2  0  0  0  0
  2 25  1  0  0  0  0
  1 26  1  0  0  0  0
  1 27  1  0  0  0  0
  1 28  1  0  0  0  0
  3 29  1  0  0  0  0
  3 30  1  0  0  0  0
  5 31  1  0  0  0  0
  6 32  1  0  0  0  0
  7 33  1  0  0  0  0
  8 34  1  0  0  0  0
  9 35  1  0  0  0  0
 10 36  1  0  0  0  0
 10 37  1  0  0  0  0
 11 38  1  0  0  0  0
 11 39  1  0  0  0  0
 12 40  1  0  0  0  0
 12 41  1  0  0  0  0
 13 42  1  0  0  0  0
 13 43  1  0  0  0  0
 16 44  1  0  0  0  0
 17 45  1  0  0  0  0
 18 46  1  0  0  0  0
 21 47  1  0  0  0  0
 22 48  1  0  0  0  0
 23 49  1  0  0  0  0
 24 50  1  0  0  0  0
 25 51  1  0  0  0  0
 25 52  1  0  0  0  0
 25 53  1  0  0  0  0
M  CHG  1   1   1
M  END
