 xtb: 6.7.1 (edcfbbe)
          12202407153D

 35 35  0     0  0            999 V2000
    0.6617   -0.2451   -0.4547 C   0  0  0  0  0  0  0  0  0  0  0  0
    0.1461   -1.2017    0.6146 C   0  0  0  0  0  0  0  0  0  0  0  0
    0.9476   -1.1515    1.9263 C   0  0  0  0  0  0  0  0  0  0  0  0
    0.4541   -0.1506    2.8655 N   0  0  0  0  0  0  0  0  0  0  0  0
   -0.2056   -0.5023    3.9712 C   0  0  0  0  0  0  0  0  0  0  0  0
   -0.2410   -1.8503    4.2888 N   0  0  0  0  0  0  0  0  0  0  0  0
   -1.1524   -2.7085    3.5348 C   0  0  0  0  0  0  0  0  0  0  0  0
   -0.2082   -2.1663    5.7116 C   0  0  0  0  0  0  0  0  0  0  0  0
   -1.2712   -1.3757    6.4583 C   0  0  0  0  0  0  0  0  0  0  0  0
   -0.9805    0.0965    6.2181 C   0  0  0  0  0  0  0  0  0  0  0  0
   -0.7563    0.3965    4.8042 N   0  0  0  0  0  0  0  0  0  0  0  0
   -1.2637    1.6948    4.4007 C   0  0  0  0  0  0  0  0  0  0  0  0
    0.9445    1.1928    2.6186 C   0  0  0  0  0  0  0  0  0  0  0  0
    0.5426    0.7950   -0.1651 H   0  0  0  0  0  0  0  0  0  0  0  0
    0.1105   -0.3983   -1.3784 H   0  0  0  0  0  0  0  0  0  0  0  0
    1.7133   -0.4310   -0.6581 H   0  0  0  0  0  0  0  0  0  0  0  0
   -0.9062   -0.9862    0.8134 H   0  0  0  0  0  0  0  0  0  0  0  0
    0.2068   -2.2180    0.2233 H   0  0  0  0  0  0  0  0  0  0  0  0
    0.9421   -2.1207    2.4202 H   0  0  0  0  0  0  0  0  0  0  0  0
    1.9872   -0.9102    1.6937 H   0  0  0  0  0  0  0  0  0  0  0  0
   -0.7131   -3.7018    3.4476 H   0  0  0  0  0  0  0  0  0  0  0  0
   -2.1148   -2.7963    4.0476 H   0  0  0  0  0  0  0  0  0  0  0  0
   -1.3358   -2.3122    2.5423 H   0  0  0  0  0  0  0  0  0  0  0  0
    0.7859   -1.9120    6.0894 H   0  0  0  0  0  0  0  0  0  0  0  0
   -0.3484   -3.2407    5.8195 H   0  0  0  0  0  0  0  0  0  0  0  0
   -1.2446   -1.5897    7.5245 H   0  0  0  0  0  0  0  0  0  0  0  0
   -2.2626   -1.6329    6.0821 H   0  0  0  0  0  0  0  0  0  0  0  0
   -0.0827    0.3937    6.7734 H   0  0  0  0  0  0  0  0  0  0  0  0
   -1.8093    0.7096    6.5728 H   0  0  0  0  0  0  0  0  0  0  0  0
   -2.2775    1.7936    4.7938 H   0  0  0  0  0  0  0  0  0  0  0  0
   -0.6683    2.5146    4.8057 H   0  0  0  0  0  0  0  0  0  0  0  0
   -1.3288    1.7761    3.3222 H   0  0  0  0  0  0  0  0  0  0  0  0
    1.9264    1.1117    2.1545 H   0  0  0  0  0  0  0  0  0  0  0  0
    0.3051    1.7547    1.9373 H   0  0  0  0  0  0  0  0  0  0  0  0
    1.0642    1.7412    3.5483 H   0  0  0  0  0  0  0  0  0  0  0  0
  1  2  1  0  0  0  0
  2  3  1  0  0  0  0
  3  4  1  0  0  0  0
  4  5  4  0  0  0  0
  5  6  1  0  0  0  0
  6  7  1  0  0  0  0
  6  8  1  0  0  0  0
  8  9  1  0  0  0  0
  9 10  1  0  0  0  0
  5 11  4  0  0  0  0
 10 11  1  0  0  0  0
 11 12  1  0  0  0  0
  4 13  1  0  0  0  0
  1 14  1  0  0  0  0
  1 15  1  0  0  0  0
  1 16  1  0  0  0  0
  2 17  1  0  0  0  0
  2 18  1  0  0  0  0
  3 19  1  0  0  0  0
  3 20  1  0  0  0  0
  7 21  1  0  0  0  0
  7 22  1  0  0  0  0
  7 23  1  0  0  0  0
  8 24  1  0  0  0  0
  8 25  1  0  0  0  0
  9 26  1  0  0  0  0
  9 27  1  0  0  0  0
 10 28  1  0  0  0  0
 10 29  1  0  0  0  0
 12 30  1  0  0  0  0
 12 31  1  0  0  0  0
 12 32  1  0  0  0  0
 13 33  1  0  0  0  0
 13 34  1  0  0  0  0
 13 35  1  0  0  0  0
M  CHG  1   1   1
M  END
