26

C          1.05740        0.28559        0.42520
C          0.51722       -1.12480        0.61435
C          0.88443       -1.65505        1.99562
C          0.09006       -1.19041        3.19909
N          0.28525       -2.15400        4.31054
C          1.27927       -1.95658        5.20909
C          1.49370       -2.86735        6.23780
C          0.68657       -3.99346        6.33221
C         -0.31870       -4.19073        5.39580
C         -0.50132       -3.25461        4.38554
O          1.85961       -2.39344        2.14285
C         -0.98036       -1.19713        0.33978
H          0.59145        0.99157        1.12069
H          0.87046        0.63809       -0.59475
H          2.13840        0.31483        0.59985
H          1.01290       -1.78695       -0.10778
H          0.43160       -0.20276        3.52156
H         -0.98236       -1.15459        2.99579
H          1.90550       -1.07724        5.08864
H          2.29624       -2.70781        6.95489
H          0.84947       -4.72223        7.12534
H         -0.94922       -5.07596        5.44662
H         -1.26770       -3.38384        3.62653
H         -1.18377       -1.03702       -0.72421
H         -1.38503       -2.17595        0.61903
H         -1.53251       -0.43356        0.89815
