 xtb: 6.7.1 (edcfbbe)
          12202407153D

 57 57  0     0  0            999 V2000
    1.1567    0.5999    0.1405 C   0  0  0  0  0  0  0  0  0  0  0  0
    1.0127    0.3840   -1.3612 C   0  0  0  0  0  0  0  0  0  0  0  0
    1.3324   -1.0463   -1.7981 C   0  0  0  0  0  0  0  0  0  0  0  0
    0.4112   -2.1205   -1.2163 C   0  0  0  0  0  0  0  0  0  0  0  0
   -1.0721   -1.9531   -1.5517 C   0  0  0  0  0  0  0  0  0  0  0  0
   -1.3997   -1.9333   -3.0460 C   0  0  0  0  0  0  0  0  0  0  0  0
   -0.9550   -3.1748   -3.8218 C   0  0  0  0  0  0  0  0  0  0  0  0
   -1.5109   -4.4992   -3.2952 C   0  0  0  0  0  0  0  0  0  0  0  0
   -3.0376   -4.5934   -3.2668 C   0  0  0  0  0  0  0  0  0  0  0  0
   -3.7202   -4.4240   -4.6255 C   0  0  0  0  0  0  0  0  0  0  0  0
   -3.2730   -5.4163   -5.7020 C   0  0  0  0  0  0  0  0  0  0  0  0
   -3.4159   -6.8918   -5.3189 C   0  0  0  0  0  0  0  0  0  0  0  0
   -4.8343   -7.3288   -4.9551 C   0  0  0  0  0  0  0  0  0  0  0  0
   -5.8221   -7.2846   -6.1303 C   0  0  0  0  0  0  0  0  0  0  0  0
   -5.4645   -8.2717   -7.1325 N   0  0  0  0  0  0  0  0  0  0  0  0
   -4.7007   -7.9261   -8.1715 C   0  0  0  0  0  0  0  0  0  0  0  0
   -4.2858   -8.8737   -9.0879 C   0  0  0  0  0  0  0  0  0  0  0  0
   -4.6640  -10.1941   -8.9204 C   0  0  0  0  0  0  0  0  0  0  0  0
   -5.4628  -10.5525   -7.8296 C   0  0  0  0  0  0  0  0  0  0  0  0
   -5.8373   -9.5446   -6.9556 C   0  0  0  0  0  0  0  0  0  0  0  0
   -5.9034  -11.9571   -7.6215 C   0  0  0  0  0  0  0  0  0  0  0  0
    0.4132    0.0310    0.6929 H   0  0  0  0  0  0  0  0  0  0  0  0
    1.0251    1.6517    0.3837 H   0  0  0  0  0  0  0  0  0  0  0  0
    2.1450    0.2928    0.4758 H   0  0  0  0  0  0  0  0  0  0  0  0
    0.0012    0.6512   -1.6723 H   0  0  0  0  0  0  0  0  0  0  0  0
    1.6993    1.0569   -1.8806 H   0  0  0  0  0  0  0  0  0  0  0  0
    1.3010   -1.0941   -2.8888 H   0  0  0  0  0  0  0  0  0  0  0  0
    2.3559   -1.2808   -1.4943 H   0  0  0  0  0  0  0  0  0  0  0  0
    0.7553   -3.0941   -1.5727 H   0  0  0  0  0  0  0  0  0  0  0  0
    0.5140   -2.1267   -0.1296 H   0  0  0  0  0  0  0  0  0  0  0  0
   -1.6245   -2.7633   -1.0699 H   0  0  0  0  0  0  0  0  0  0  0  0
   -1.4344   -1.0209   -1.1146 H   0  0  0  0  0  0  0  0  0  0  0  0
   -2.4786   -1.8017   -3.1582 H   0  0  0  0  0  0  0  0  0  0  0  0
   -0.9257   -1.0631   -3.5035 H   0  0  0  0  0  0  0  0  0  0  0  0
   -1.2447   -3.0470   -4.8678 H   0  0  0  0  0  0  0  0  0  0  0  0
    0.1344   -3.2364   -3.8008 H   0  0  0  0  0  0  0  0  0  0  0  0
   -1.1044   -5.3092   -3.9061 H   0  0  0  0  0  0  0  0  0  0  0  0
   -1.1469   -4.6574   -2.2790 H   0  0  0  0  0  0  0  0  0  0  0  0
   -3.3154   -5.5575   -2.8333 H   0  0  0  0  0  0  0  0  0  0  0  0
   -3.4278   -3.8239   -2.5996 H   0  0  0  0  0  0  0  0  0  0  0  0
   -4.8014   -4.4972   -4.4815 H   0  0  0  0  0  0  0  0  0  0  0  0
   -3.5213   -3.4186   -4.9985 H   0  0  0  0  0  0  0  0  0  0  0  0
   -3.8361   -5.2025   -6.6151 H   0  0  0  0  0  0  0  0  0  0  0  0
   -2.2226   -5.2361   -5.9328 H   0  0  0  0  0  0  0  0  0  0  0  0
   -3.0342   -7.5112   -6.1371 H   0  0  0  0  0  0  0  0  0  0  0  0
   -2.7799   -7.0874   -4.4559 H   0  0  0  0  0  0  0  0  0  0  0  0
   -4.8052   -8.3447   -4.5545 H   0  0  0  0  0  0  0  0  0  0  0  0
   -5.2241   -6.6777   -4.1741 H   0  0  0  0  0  0  0  0  0  0  0  0
   -6.8298   -7.4983   -5.7693 H   0  0  0  0  0  0  0  0  0  0  0  0
   -5.8152   -6.2935   -6.5840 H   0  0  0  0  0  0  0  0  0  0  0  0
   -4.4300   -6.8862   -8.2699 H   0  0  0  0  0  0  0  0  0  0  0  0
   -3.6709   -8.5739   -9.9210 H   0  0  0  0  0  0  0  0  0  0  0  0
   -4.3493  -10.9476   -9.6256 H   0  0  0  0  0  0  0  0  0  0  0  0
   -6.4529   -9.7585   -6.0938 H   0  0  0  0  0  0  0  0  0  0  0  0
   -6.6471  -12.2253   -8.3717 H   0  0  0  0  0  0  0  0  0  0  0  0
   -5.0655  -12.6406   -7.7406 H   0  0  0  0  0  0  0  0  0  0  0  0
   -6.3418  -12.0986   -6.6383 H   0  0  0  0  0  0  0  0  0  0  0  0
  1  2  1  0  0  0  0
  2  3  1  0  0  0  0
  3  4  1  0  0  0  0
  4  5  1  0  0  0  0
  5  6  1  0  0  0  0
  6  7  1  0  0  0  0
  7  8  1  0  0  0  0
  8  9  1  0  0  0  0
  9 10  1  0  0  0  0
 10 11  1  0  0  0  0
 11 12  1  0  0  0  0
 12 13  1  0  0  0  0
 13 14  1  0  0  0  0
 14 15  1  0  0  0  0
 15 16  4  0  0  0  0
 16 17  4  0  0  0  0
 17 18  4  0  0  0  0
 18 19  4  0  0  0  0
 15 20  4  0  0  0  0
 19 20  4  0  0  0  0
 19 21  1  0  0  0  0
  1 22  1  0  0  0  0
  1 23  1  0  0  0  0
  1 24  1  0  0  0  0
  2 25  1  0  0  0  0
  2 26  1  0  0  0  0
  3 27  1  0  0  0  0
  3 28  1  0  0  0  0
  4 29  1  0  0  0  0
  4 30  1  0  0  0  0
  5 31  1  0  0  0  0
  5 32  1  0  0  0  0
  6 33  1  0  0  0  0
  6 34  1  0  0  0  0
  7 35  1  0  0  0  0
  7 36  1  0  0  0  0
  8 37  1  0  0  0  0
  8 38  1  0  0  0  0
  9 39  1  0  0  0  0
  9 40  1  0  0  0  0
 10 41  1  0  0  0  0
 10 42  1  0  0  0  0
 11 43  1  0  0  0  0
 11 44  1  0  0  0  0
 12 45  1  0  0  0  0
 12 46  1  0  0  0  0
 13 47  1  0  0  0  0
 13 48  1  0  0  0  0
 14 49  1  0  0  0  0
 14 50  1  0  0  0  0
 16 51  1  0  0  0  0
 17 52  1  0  0  0  0
 18 53  1  0  0  0  0
 20 54  1  0  0  0  0
 21 55  1  0  0  0  0
 21 56  1  0  0  0  0
 21 57  1  0  0  0  0
M  CHG  1   1   1
M  END
