 xtb: 6.7.1 (edcfbbe)
          12202407153D

 18 18  0     0  0            999 V2000
    0.8067   -1.7702    0.8382 O   0  0  0  0  0  0  0  0  0  0  0  0
    0.3638   -0.5498    1.0102 C   0  0  0  0  0  0  0  0  0  0  0  0
    0.8800    0.3290    1.6340 O   0  0  0  0  0  0  0  0  0  0  0  0
   -0.9822   -0.3503    0.2645 C   0  0  0  0  0  0  0  0  0  0  0  0
   -1.6279    0.8348    0.7717 N   0  0  0  0  0  0  0  0  0  0  0  0
   -2.7371    0.7436    1.5174 C   0  0  0  0  0  0  0  0  0  0  0  0
   -3.2946    1.8607    2.1007 C   0  0  0  0  0  0  0  0  0  0  0  0
   -2.6813    3.0965    1.9273 C   0  0  0  0  0  0  0  0  0  0  0  0
   -1.5310    3.1683    1.1539 C   0  0  0  0  0  0  0  0  0  0  0  0
   -1.0249    2.0168    0.5854 C   0  0  0  0  0  0  0  0  0  0  0  0
    1.6624   -1.9296    1.2744 H   0  0  0  0  0  0  0  0  0  0  0  0
   -0.7527   -0.2465   -0.8006 H   0  0  0  0  0  0  0  0  0  0  0  0
   -1.6025   -1.2374    0.4017 H   0  0  0  0  0  0  0  0  0  0  0  0
   -3.1763   -0.2354    1.6413 H   0  0  0  0  0  0  0  0  0  0  0  0
   -4.1917    1.7619    2.6909 H   0  0  0  0  0  0  0  0  0  0  0  0
   -3.0926    3.9820    2.3859 H   0  0  0  0  0  0  0  0  0  0  0  0
   -1.0247    4.1066    0.9931 H   0  0  0  0  0  0  0  0  0  0  0  0
   -0.1342    2.0342   -0.0236 H   0  0  0  0  0  0  0  0  0  0  0  0
  1  2  4  0  0  0  0
  2  3  2  0  0  0  0
  2  4  1  0  0  0  0
  4  5  1  0  0  0  0
  5  6  4  0  0  0  0
  6  7  4  0  0  0  0
  7  8  4  0  0  0  0
  8  9  4  0  0  0  0
  5 10  4  0  0  0  0
  9 10  4  0  0  0  0
  1 11  1  0  0  0  0
  4 12  1  0  0  0  0
  4 13  1  0  0  0  0
  6 14  1  0  0  0  0
  7 15  1  0  0  0  0
  8 16  1  0  0  0  0
  9 17  1  0  0  0  0
 10 18  1  0  0  0  0
M  CHG  1   1   1
M  END
