53

C          1.78379       -0.00578       -0.05324
N          0.86203       -0.79212       -0.97511
C          0.77578       -2.27737       -0.51126
C          0.46939       -2.69029        0.91340
C         -0.14650       -1.90899        1.89810
C         -0.41778       -2.42843        3.17035
C         -0.09243       -3.74389        3.48079
C          0.50378       -4.54702        2.51841
C          0.77762       -4.02704        1.25142
C         -0.55596       -0.19840       -1.05549
C         -0.62570        1.21148       -1.65898
C         -1.26371        1.29371       -3.05658
C         -2.63095        0.61306       -3.19872
O         -3.45369        0.95716       -2.08196
C         -4.03872       -0.10180       -1.42702
C         -4.58572       -1.19001       -2.11328
C         -5.09677       -2.27439       -1.40541
C         -5.07559       -2.26989       -0.01144
C         -4.57975       -1.16548        0.69730
C         -4.07859       -0.04790       -0.01238
C         -3.63704        1.06919        0.73033
C         -3.65866        1.07197        2.12574
C         -4.12592       -0.04266        2.81113
C         -4.58692       -1.15171        2.10180
C          1.48873       -0.82307       -2.37554
H          1.26921        0.21057        0.88329
H          2.05652        0.93388       -0.54113
H          2.68575       -0.59906        0.12467
H          0.04747       -2.76018       -1.17586
H          1.76273       -2.69653       -0.75107
H         -0.44552       -0.88171        1.73736
H         -0.89581       -1.80243        3.92182
H         -0.31121       -4.14381        4.46829
H          0.74926       -5.58114        2.75137
H          1.23360       -4.69452        0.51985
H         -1.15796       -0.92169       -1.61022
H         -0.94051       -0.15301       -0.03923
H         -1.22981        1.83291       -0.98668
H          0.34917        1.70644       -1.68809
H         -1.38490        2.35859       -3.29296
H         -0.58071        0.88351       -3.80875
H         -3.12538        0.96250       -4.11188
H         -2.46867       -0.46566       -3.30630
H         -4.63844       -1.20218       -3.19833
H         -5.52434       -3.12146       -1.93729
H         -5.48182       -3.12825        0.52186
H         -3.30222        1.96800        0.21606
H         -3.33475        1.95271        2.67490
H         -4.16038       -0.04079        3.89804
H         -4.97276       -2.00420        2.65864
H          1.62082        0.19985       -2.73561
H          2.46651       -1.31052       -2.31018
H          0.82288       -1.38267       -3.03916
