 xtb: 6.7.1 (edcfbbe)
          12202407153D

 30 29  0     0  0            999 V2000
    0.4006   -0.1784    0.8705 O   0  0  0  0  0  0  0  0  0  0  0  0
    0.5716   -0.3552   -0.7517 S   0  0  0  0  0  0  0  0  0  0  0  0
    1.9654   -0.3457   -1.0170 O   0  0  0  0  0  0  0  0  0  0  0  0
   -0.2117   -1.4976   -1.1077 O   0  0  0  0  0  0  0  0  0  0  0  0
   -0.1837    1.2023   -1.2991 C   0  0  0  0  0  0  0  0  0  0  0  0
   -1.5502    1.0862   -1.9559 C   0  0  0  0  0  0  0  0  0  0  0  0
   -2.5237    0.0888   -1.3137 C   0  0  0  0  0  0  0  0  0  0  0  0
   -2.6956    0.3092    0.1887 C   0  0  0  0  0  0  0  0  0  0  0  0
   -3.3246   -0.8357    0.9171 N   0  0  0  0  0  0  0  0  0  0  0  0
   -2.3536   -1.9354    1.0779 C   0  0  0  0  0  0  0  0  0  0  0  0
   -3.7252   -0.3678    2.2575 C   0  0  0  0  0  0  0  0  0  0  0  0
   -4.5180   -1.3312    0.2092 C   0  0  0  0  0  0  0  0  0  0  0  0
    1.2735   -0.1802    1.2702 H   0  0  0  0  0  0  0  0  0  0  0  0
   -0.1981    1.8208   -0.4073 H   0  0  0  0  0  0  0  0  0  0  0  0
    0.5440    1.6144   -1.9912 H   0  0  0  0  0  0  0  0  0  0  0  0
   -1.9981    2.0833   -1.9682 H   0  0  0  0  0  0  0  0  0  0  0  0
   -1.4205    0.7758   -2.9932 H   0  0  0  0  0  0  0  0  0  0  0  0
   -3.4799    0.1965   -1.8273 H   0  0  0  0  0  0  0  0  0  0  0  0
   -2.1314   -0.9064   -1.5066 H   0  0  0  0  0  0  0  0  0  0  0  0
   -1.7182    0.4647    0.6457 H   0  0  0  0  0  0  0  0  0  0  0  0
   -3.3122    1.1954    0.3582 H   0  0  0  0  0  0  0  0  0  0  0  0
   -1.5350   -1.6145    1.7193 H   0  0  0  0  0  0  0  0  0  0  0  0
   -2.8407   -2.7993    1.5246 H   0  0  0  0  0  0  0  0  0  0  0  0
   -1.9188   -2.2211    0.1215 H   0  0  0  0  0  0  0  0  0  0  0  0
   -4.5097    0.3835    2.1806 H   0  0  0  0  0  0  0  0  0  0  0  0
   -4.1006   -1.2016    2.8484 H   0  0  0  0  0  0  0  0  0  0  0  0
   -2.8712    0.0665    2.7742 H   0  0  0  0  0  0  0  0  0  0  0  0
   -5.1957   -0.5078   -0.0093 H   0  0  0  0  0  0  0  0  0  0  0  0
   -4.2333   -1.8168   -0.7207 H   0  0  0  0  0  0  0  0  0  0  0  0
   -5.0418   -2.0563    0.8300 H   0  0  0  0  0  0  0  0  0  0  0  0
  1  2  1  0  0  0  0
  2  3  2  0  0  0  0
  2  4  2  0  0  0  0
  2  5  1  0  0  0  0
  5  6  1  0  0  0  0
  6  7  1  0  0  0  0
  7  8  1  0  0  0  0
  8  9  1  0  0  0  0
  9 10  1  0  0  0  0
  9 11  1  0  0  0  0
  9 12  1  0  0  0  0
  1 13  1  0  0  0  0
  5 14  1  0  0  0  0
  5 15  1  0  0  0  0
  6 16  1  0  0  0  0
  6 17  1  0  0  0  0
  7 18  1  0  0  0  0
  7 19  1  0  0  0  0
  8 20  1  0  0  0  0
  8 21  1  0  0  0  0
 10 22  1  0  0  0  0
 10 23  1  0  0  0  0
 10 24  1  0  0  0  0
 11 25  1  0  0  0  0
 11 26  1  0  0  0  0
 11 27  1  0  0  0  0
 12 28  1  0  0  0  0
 12 29  1  0  0  0  0
 12 30  1  0  0  0  0
M  CHG  1   1   1
M  END
