46

C          1.11125       -0.61603        0.33660
C          0.68253        0.83780        0.47196
C          0.75566        1.61236       -0.84726
C         -0.25763        1.17196       -1.90584
N         -1.59985        1.68700       -1.61343
C         -2.07376        2.85014       -2.08553
N         -3.21496        3.11955       -1.42497
C         -3.96845        4.37787       -1.52481
C         -4.03704        5.13491       -0.20281
C         -2.92039        6.15289        0.01938
F         -3.03702        7.11090       -0.93854
F         -3.17663        6.76550        1.20581
C         -1.50923        5.58087        0.01638
F         -1.46072        4.49837        0.84170
F         -1.24454        5.09583       -1.23408
C         -0.44946        6.60301        0.39215
F         -0.50958        7.65192       -0.47001
F         -0.69080        7.10341        1.62943
C          0.92620        5.95876        0.34211
F          0.97268        4.91698        1.21805
F          1.12317        5.40137       -0.88864
C          2.02069        6.95616        0.64107
F          1.98689        7.97141       -0.26710
F          1.82236        7.52945        1.85883
C          3.36432        6.25418        0.59503
F          3.45150        5.26288        1.51279
F          3.59907        5.69082       -0.61477
F          4.38463        7.10969        0.83678
C         -3.58719        1.98811       -0.70677
C         -2.56679        1.08838       -0.82525
H          0.43181       -1.18044       -0.30800
H          1.11532       -1.10071        1.31814
H          2.12153       -0.68837       -0.07898
H         -0.32526        0.88679        0.89612
H          1.34672        1.32501        1.19623
H          0.60839        2.67777       -0.63058
H          1.76696        1.51061       -1.25869
H          0.04075        1.58164       -2.87839
H         -0.30763        0.08523       -2.01710
H         -1.58237        3.49063       -2.80897
H         -3.54540        4.99274       -2.32617
H         -4.98312        4.09933       -1.83628
H         -4.98109        5.69494       -0.18946
H         -4.08319        4.44629        0.64834
H         -4.52712        1.98140       -0.17994
H         -2.38638        0.10449       -0.42520
