55

C         -2.57290       -5.06041        3.17742
C         -1.36930       -4.20475        2.81125
C         -0.66673       -4.62306        1.51283
C         -1.53296       -4.74047        0.25433
N         -1.74684       -3.44337       -0.54296
C         -0.44116       -2.93014       -1.13248
O          0.31303       -3.92615       -1.79441
C          0.50422       -3.71429       -3.20437
C          1.50645       -2.57318       -3.45796
C          2.97413       -2.91533       -3.17407
C          3.29513       -2.93135       -1.67780
C          3.37105       -4.22322       -3.86053
C          2.42818       -5.37410       -3.53424
C          0.93579       -5.08283       -3.79342
C          0.41967       -5.33066       -5.24575
C          0.74496       -4.25923       -6.28325
C          0.83127       -6.70580       -5.78586
C         -2.68918       -3.77872       -1.69921
C         -2.38574       -2.34462        0.28140
H         -3.41221       -4.88346        2.49854
H         -2.91502       -4.81277        4.18763
H         -2.32381       -6.12578        3.15572
H         -1.67183       -3.15567        2.78002
H         -0.63740       -4.28004        3.62550
H          0.19524       -3.97037        1.34584
H         -0.24347       -5.62043        1.69653
H         -1.06321       -5.45300       -0.43521
H         -2.52546       -5.13908        0.48616
H         -0.68970       -2.08086       -1.77960
H          0.16492       -2.54608       -0.30495
H         -0.46881       -3.43978       -3.62965
H          1.23456       -1.68565       -2.87511
H          1.43688       -2.26724       -4.50691
H          3.58677       -2.11431       -3.60980
H          3.01606       -1.97966       -1.21314
H          2.77811       -3.73165       -1.14280
H          4.37032       -3.07145       -1.52128
H          3.40042       -4.06850       -4.94355
H          4.39267       -4.49991       -3.57220
H          2.54474       -5.61981       -2.47030
H          2.75806       -6.27250       -4.06447
H          0.41011       -5.84993       -3.20144
H         -0.67759       -5.35306       -5.17125
H          1.81949       -4.11170       -6.40394
H          0.34463       -4.54405       -7.26334
H          0.27919       -3.30400       -6.02801
H          0.64102       -7.49280       -5.04879
H          0.25571       -6.95143       -6.68535
H          1.89064       -6.73310       -6.06041
H         -3.65555       -4.07768       -1.28107
H         -2.80934       -2.88926       -2.32481
H         -2.25931       -4.59970       -2.28082
H         -3.26312       -2.75380        0.79013
H         -1.65285       -1.96471        0.99662
H         -2.68271       -1.53273       -0.38982
