 xtb: 6.7.1 (edcfbbe)
          12202407153D

 55 55  0     0  0            999 V2000
   -2.2092   -5.5213    3.1848 C   0  0  0  0  0  0  0  0  0  0  0  0
   -1.6259   -4.1625    2.8137 C   0  0  0  0  0  0  0  0  0  0  0  0
   -0.6804   -4.2297    1.6082 C   0  0  0  0  0  0  0  0  0  0  0  0
   -1.3552   -4.5618    0.2735 C   0  0  0  0  0  0  0  0  0  0  0  0
   -1.7129   -3.4041   -0.6070 N   0  0  0  0  0  0  0  0  0  0  0  0
   -0.4392   -2.8049   -1.1852 C   0  0  0  0  0  0  0  0  0  0  0  0
    0.2532   -3.7702   -1.8600 O   0  0  0  0  0  0  0  0  0  0  0  0
    0.5249   -3.5525   -3.2679 C   0  0  0  0  0  0  0  0  0  0  0  0
    1.6003   -2.4849   -3.4648 C   0  0  0  0  0  0  0  0  0  0  0  0
    3.0132   -2.9321   -3.0806 C   0  0  0  0  0  0  0  0  0  0  0  0
    3.1964   -3.0709   -1.5707 C   0  0  0  0  0  0  0  0  0  0  0  0
    3.3454   -4.2204   -3.8324 C   0  0  0  0  0  0  0  0  0  0  0  0
    2.3239   -5.3253   -3.5775 C   0  0  0  0  0  0  0  0  0  0  0  0
    0.8605   -4.9411   -3.8414 C   0  0  0  0  0  0  0  0  0  0  0  0
    0.3647   -5.1303   -5.2955 C   0  0  0  0  0  0  0  0  0  0  0  0
    1.2583   -4.5425   -6.3829 C   0  0  0  0  0  0  0  0  0  0  0  0
    0.1438   -6.6170   -5.5816 C   0  0  0  0  0  0  0  0  0  0  0  0
   -2.5366   -3.9153   -1.7190 C   0  0  0  0  0  0  0  0  0  0  0  0
   -2.4635   -2.3653    0.1112 C   0  0  0  0  0  0  0  0  0  0  0  0
   -2.8545   -5.9177    2.4039 H   0  0  0  0  0  0  0  0  0  0  0  0
   -2.8031   -5.4328    4.0898 H   0  0  0  0  0  0  0  0  0  0  0  0
   -1.4157   -6.2403    3.3698 H   0  0  0  0  0  0  0  0  0  0  0  0
   -2.4379   -3.4547    2.6436 H   0  0  0  0  0  0  0  0  0  0  0  0
   -1.0495   -3.7934    3.6632 H   0  0  0  0  0  0  0  0  0  0  0  0
   -0.1098   -3.3035    1.5384 H   0  0  0  0  0  0  0  0  0  0  0  0
    0.0445   -5.0207    1.8076 H   0  0  0  0  0  0  0  0  0  0  0  0
   -0.6882   -5.1832   -0.3267 H   0  0  0  0  0  0  0  0  0  0  0  0
   -2.2707   -5.1213    0.4681 H   0  0  0  0  0  0  0  0  0  0  0  0
   -0.7339   -1.9638   -1.8256 H   0  0  0  0  0  0  0  0  0  0  0  0
    0.1456   -2.4262   -0.3378 H   0  0  0  0  0  0  0  0  0  0  0  0
   -0.4061   -3.1900   -3.7330 H   0  0  0  0  0  0  0  0  0  0  0  0
    1.3289   -1.5925   -2.8930 H   0  0  0  0  0  0  0  0  0  0  0  0
    1.5942   -2.2068   -4.5190 H   0  0  0  0  0  0  0  0  0  0  0  0
    3.7031   -2.1523   -3.4220 H   0  0  0  0  0  0  0  0  0  0  0  0
    2.9861   -2.1238   -1.0766 H   0  0  0  0  0  0  0  0  0  0  0  0
    2.5416   -3.8323   -1.1588 H   0  0  0  0  0  0  0  0  0  0  0  0
    4.2248   -3.3440   -1.3488 H   0  0  0  0  0  0  0  0  0  0  0  0
    3.4036   -3.9955   -4.8960 H   0  0  0  0  0  0  0  0  0  0  0  0
    4.3274   -4.5791   -3.5199 H   0  0  0  0  0  0  0  0  0  0  0  0
    2.4054   -5.6329   -2.5337 H   0  0  0  0  0  0  0  0  0  0  0  0
    2.5766   -6.1929   -4.1866 H   0  0  0  0  0  0  0  0  0  0  0  0
    0.2522   -5.6377   -3.2486 H   0  0  0  0  0  0  0  0  0  0  0  0
   -0.6137   -4.6358   -5.3649 H   0  0  0  0  0  0  0  0  0  0  0  0
    2.2102   -5.0628   -6.4251 H   0  0  0  0  0  0  0  0  0  0  0  0
    0.7720   -4.6635   -7.3482 H   0  0  0  0  0  0  0  0  0  0  0  0
    1.4360   -3.4822   -6.2317 H   0  0  0  0  0  0  0  0  0  0  0  0
   -0.5468   -7.0591   -4.8665 H   0  0  0  0  0  0  0  0  0  0  0  0
   -0.2716   -6.7457   -6.5774 H   0  0  0  0  0  0  0  0  0  0  0  0
    1.0807   -7.1651   -5.5365 H   0  0  0  0  0  0  0  0  0  0  0  0
   -3.4519   -4.3610   -1.3351 H   0  0  0  0  0  0  0  0  0  0  0  0
   -2.7999   -3.1017   -2.3932 H   0  0  0  0  0  0  0  0  0  0  0  0
   -1.9777   -4.6686   -2.2717 H   0  0  0  0  0  0  0  0  0  0  0  0
   -3.3650   -2.7974    0.5419 H   0  0  0  0  0  0  0  0  0  0  0  0
   -1.8595   -1.9349    0.9062 H   0  0  0  0  0  0  0  0  0  0  0  0
   -2.7520   -1.5706   -0.5755 H   0  0  0  0  0  0  0  0  0  0  0  0
  1  2  1  0  0  0  0
  2  3  1  0  0  0  0
  3  4  1  0  0  0  0
  4  5  1  0  0  0  0
  5  6  1  0  0  0  0
  6  7  1  0  0  0  0
  7  8  1  0  0  0  0
  8  9  1  0  0  0  0
  9 10  1  0  0  0  0
 10 11  1  0  0  0  0
 10 12  1  0  0  0  0
 12 13  1  0  0  0  0
  8 14  1  0  0  0  0
 13 14  1  0  0  0  0
 14 15  1  0  0  0  0
 15 16  1  0  0  0  0
 15 17  1  0  0  0  0
  5 18  1  0  0  0  0
  5 19  1  0  0  0  0
  1 20  1  0  0  0  0
  1 21  1  0  0  0  0
  1 22  1  0  0  0  0
  2 23  1  0  0  0  0
  2 24  1  0  0  0  0
  3 25  1  0  0  0  0
  3 26  1  0  0  0  0
  4 27  1  0  0  0  0
  4 28  1  0  0  0  0
  6 29  1  0  0  0  0
  6 30  1  0  0  0  0
  8 31  1  0  0  0  0
  9 32  1  0  0  0  0
  9 33  1  0  0  0  0
 10 34  1  0  0  0  0
 11 35  1  0  0  0  0
 11 36  1  0  0  0  0
 11 37  1  0  0  0  0
 12 38  1  0  0  0  0
 12 39  1  0  0  0  0
 13 40  1  0  0  0  0
 13 41  1  0  0  0  0
 14 42  1  0  0  0  0
 15 43  1  0  0  0  0
 16 44  1  0  0  0  0
 16 45  1  0  0  0  0
 16 46  1  0  0  0  0
 17 47  1  0  0  0  0
 17 48  1  0  0  0  0
 17 49  1  0  0  0  0
 18 50  1  0  0  0  0
 18 51  1  0  0  0  0
 18 52  1  0  0  0  0
 19 53  1  0  0  0  0
 19 54  1  0  0  0  0
 19 55  1  0  0  0  0
M  CHG  1   1   1
M  END
