 xtb: 6.7.1 (edcfbbe)
          12202407153D

 12 12  0     0  0            999 V2000
    1.0973    0.1398   -0.2543 O   0  0  0  0  0  0  0  0  0  0  0  0
    0.3688   -0.6795   -1.0373 N   0  0  0  0  0  0  0  0  0  0  0  0
    0.6322   -1.9575   -1.4062 C   0  0  0  0  0  0  0  0  0  0  0  0
   -0.4009   -2.3645   -2.2036 C   0  0  0  0  0  0  0  0  0  0  0  0
   -1.2637   -1.3227   -2.2974 N   0  0  0  0  0  0  0  0  0  0  0  0
   -0.7943   -0.2866   -1.5826 C   0  0  0  0  0  0  0  0  0  0  0  0
   -1.5963    1.3653   -1.3867 Br  0  0  0  0  0  0  0  0  0  0  0  0
   -2.4263   -1.2484   -2.9741 O   0  0  0  0  0  0  0  0  0  0  0  0
    1.9082   -0.3001    0.0558 H   0  0  0  0  0  0  0  0  0  0  0  0
    1.5073   -2.4947   -1.0960 H   0  0  0  0  0  0  0  0  0  0  0  0
   -0.5571   -3.3080   -2.6894 H   0  0  0  0  0  0  0  0  0  0  0  0
   -2.6170   -2.0829   -3.4372 H   0  0  0  0  0  0  0  0  0  0  0  0
  1  2  1  0  0  0  0
  2  3  4  0  0  0  0
  3  4  2  0  0  0  0
  4  5  4  0  0  0  0
  2  6  4  0  0  0  0
  5  6  4  0  0  0  0
  6  7  1  0  0  0  0
  5  8  1  0  0  0  0
  1  9  1  0  0  0  0
  3 10  1  0  0  0  0
  4 11  1  0  0  0  0
  8 12  1  0  0  0  0
M  CHG  1   1   1
M  END
