32

C          1.20688       -0.08338       -0.19275
C          0.87940       -0.30460        1.27574
C          1.15796        0.91585        2.15765
C          0.39429        2.19218        1.78807
C         -1.12638        2.06862        1.83013
N         -1.63374        1.89350        3.19489
C         -1.95253        0.69177        3.80694
C         -2.39872        0.99339        5.06266
N         -2.35730        2.37289        5.18200
C         -1.89235        2.90397        4.04076
C         -2.79488        3.15187        6.33692
C         -1.64841        3.98987        6.80563
C         -1.63095        5.33013        6.80699
H          0.54557        0.66263       -0.64315
H          1.07983       -1.01688       -0.75049
H          2.24223        0.24825       -0.31915
H         -0.16514       -0.61831        1.37178
H          1.48581       -1.14066        1.64489
H          0.94302        0.65179        3.19971
H          2.23217        1.13730        2.11863
H          0.70647        2.98734        2.47660
H          0.69577        2.51879        0.78633
H         -1.57499        2.98822        1.43502
H         -1.48970        1.24718        1.20480
H         -1.81678       -0.22903        3.26637
H         -2.75136        0.40032        5.88912
H         -1.75371        3.95961        3.83496
H         -3.65503        3.75696        6.03043
H         -3.11688        2.47778        7.13733
H         -0.78287        3.45498        7.19214
H         -0.76727        5.87404        7.18422
H         -2.47133        5.92612        6.46077
