12

O          1.14201        0.15117       -0.22388
N          0.35493       -0.66279       -1.03857
C          0.63717       -1.96211       -1.40433
C         -0.40100       -2.37133       -2.20579
N         -1.26792       -1.30256       -2.29142
C         -0.80532       -0.26535       -1.57946
Br        -1.61175        1.39382       -1.38191
O         -2.46449       -1.26935       -3.00759
H          1.91901       -0.38328        0.02582
H          1.53685       -2.43503       -1.05224
H         -0.62639       -3.28761       -2.72219
H         -2.55500       -2.14530       -3.42739
