 xtb: 6.7.1 (edcfbbe)
          12202407153D

 25 26  0     0  0            999 V2000
    0.0710   -0.7838    0.7323 C   0  0  0  0  0  0  0  0  0  0  0  0
    0.0436   -0.6997   -0.7030 N   0  0  0  0  0  0  0  0  0  0  0  0
   -0.3919    0.3672   -1.4295 C   0  0  0  0  0  0  0  0  0  0  0  0
   -0.2062    0.0678   -2.7437 C   0  0  0  0  0  0  0  0  0  0  0  0
    0.3283   -1.1853   -2.8007 N   0  0  0  0  0  0  0  0  0  0  0  0
    0.4857   -1.6234   -1.5507 C   0  0  0  0  0  0  0  0  0  0  0  0
    0.8860   -1.8336   -3.9493 C   0  0  0  0  0  0  0  0  0  0  0  0
    2.4212   -1.9729   -3.7109 C   0  0  0  0  0  0  0  0  0  0  0  0
    2.8614   -1.7834   -2.6003 O   0  0  0  0  0  0  0  0  0  0  0  0
    3.1850   -2.3456   -4.8688 C   0  0  0  0  0  0  0  0  0  0  0  0
    2.8208   -2.6352   -6.1768 C   0  0  0  0  0  0  0  0  0  0  0  0
    4.0047   -2.9560   -6.8502 C   0  0  0  0  0  0  0  0  0  0  0  0
    5.0080   -2.8398   -5.9178 C   0  0  0  0  0  0  0  0  0  0  0  0
    4.5276   -2.4802   -4.7414 O   0  0  0  0  0  0  0  0  0  0  0  0
   -0.0294   -1.8202    1.0487 H   0  0  0  0  0  0  0  0  0  0  0  0
   -0.7452   -0.1983    1.1513 H   0  0  0  0  0  0  0  0  0  0  0  0
    1.0160   -0.3924    1.1141 H   0  0  0  0  0  0  0  0  0  0  0  0
   -0.7945    1.2495   -0.9754 H   0  0  0  0  0  0  0  0  0  0  0  0
   -0.4207    0.6457   -3.6191 H   0  0  0  0  0  0  0  0  0  0  0  0
    0.8871   -2.5777   -1.2713 H   0  0  0  0  0  0  0  0  0  0  0  0
    0.4702   -2.8376   -4.0711 H   0  0  0  0  0  0  0  0  0  0  0  0
    0.6802   -1.2453   -4.8426 H   0  0  0  0  0  0  0  0  0  0  0  0
    1.8342   -2.6247   -6.5930 H   0  0  0  0  0  0  0  0  0  0  0  0
    4.1109   -3.2341   -7.8780 H   0  0  0  0  0  0  0  0  0  0  0  0
    6.0678   -2.9897   -5.9993 H   0  0  0  0  0  0  0  0  0  0  0  0
  1  2  1  0  0  0  0
  2  3  4  0  0  0  0
  3  4  2  0  0  0  0
  4  5  4  0  0  0  0
  2  6  4  0  0  0  0
  5  6  4  0  0  0  0
  5  7  1  0  0  0  0
  7  8  1  0  0  0  0
  8  9  2  0  0  0  0
  8 10  1  0  0  0  0
 10 11  4  0  0  0  0
 11 12  4  0  0  0  0
 12 13  2  0  0  0  0
 10 14  1  0  0  0  0
 13 14  4  0  0  0  0
  1 15  1  0  0  0  0
  1 16  1  0  0  0  0
  1 17  1  0  0  0  0
  3 18  1  0  0  0  0
  4 19  1  0  0  0  0
  6 20  1  0  0  0  0
  7 21  1  0  0  0  0
  7 22  1  0  0  0  0
 11 23  1  0  0  0  0
 12 24  1  0  0  0  0
 13 25  1  0  0  0  0
M  CHG  1   1   1
M  END
