 xtb: 6.7.1 (edcfbbe)
          12202407153D

 44 47  0     0  0            999 V2000
    0.3674   -1.7479   -2.2554 O   0  0  0  0  0  0  0  0  0  0  0  0
    1.2230   -1.2533   -1.5680 C   0  0  0  0  0  0  0  0  0  0  0  0
    2.2562   -2.0226   -0.8633 C   0  0  0  0  0  0  0  0  0  0  0  0
    3.0544   -1.5043    0.1596 C   0  0  0  0  0  0  0  0  0  0  0  0
    4.0059   -2.3009    0.7667 C   0  0  0  0  0  0  0  0  0  0  0  0
    4.1778   -3.6177    0.3664 C   0  0  0  0  0  0  0  0  0  0  0  0
    3.3837   -4.1463   -0.6399 C   0  0  0  0  0  0  0  0  0  0  0  0
    2.4281   -3.3576   -1.2478 C   0  0  0  0  0  0  0  0  0  0  0  0
    1.2985    0.2978   -1.4657 C   0  0  0  0  0  0  0  0  0  0  0  0
    2.5102    0.7664   -2.0804 N   0  0  0  0  0  0  0  0  0  0  0  0
    3.5441    1.3580   -1.4914 C   0  0  0  0  0  0  0  0  0  0  0  0
    4.5296    1.5814   -2.3543 N   0  0  0  0  0  0  0  0  0  0  0  0
    4.1232    1.1197   -3.5884 C   0  0  0  0  0  0  0  0  0  0  0  0
    2.8296    0.5911   -3.4131 C   0  0  0  0  0  0  0  0  0  0  0  0
    2.1201    0.0363   -4.4719 C   0  0  0  0  0  0  0  0  0  0  0  0
    2.7459    0.0311   -5.7011 C   0  0  0  0  0  0  0  0  0  0  0  0
    4.0297    0.5573   -5.8781 C   0  0  0  0  0  0  0  0  0  0  0  0
    4.7415    1.1095   -4.8336 C   0  0  0  0  0  0  0  0  0  0  0  0
    5.8085    2.1855   -2.0302 C   0  0  0  0  0  0  0  0  0  0  0  0
    6.2262    1.8305   -0.6246 C   0  0  0  0  0  0  0  0  0  0  0  0
    6.4862    0.5026   -0.3017 C   0  0  0  0  0  0  0  0  0  0  0  0
    6.8695    0.1621    0.9828 C   0  0  0  0  0  0  0  0  0  0  0  0
    6.9915    1.1427    1.9541 C   0  0  0  0  0  0  0  0  0  0  0  0
    6.7289    2.4648    1.6384 C   0  0  0  0  0  0  0  0  0  0  0  0
    6.3444    2.8086    0.3530 C   0  0  0  0  0  0  0  0  0  0  0  0
    2.9148   -0.4978    0.5219 H   0  0  0  0  0  0  0  0  0  0  0  0
    4.6078   -1.8950    1.5652 H   0  0  0  0  0  0  0  0  0  0  0  0
    4.9201   -4.2343    0.8492 H   0  0  0  0  0  0  0  0  0  0  0  0
    3.5055   -5.1745   -0.9428 H   0  0  0  0  0  0  0  0  0  0  0  0
    1.7968   -3.7514   -2.0297 H   0  0  0  0  0  0  0  0  0  0  0  0
    0.4351    0.6997   -2.0044 H   0  0  0  0  0  0  0  0  0  0  0  0
    1.2550    0.6213   -0.4256 H   0  0  0  0  0  0  0  0  0  0  0  0
    3.5885    1.6344   -0.4550 H   0  0  0  0  0  0  0  0  0  0  0  0
    1.1328   -0.3747   -4.3393 H   0  0  0  0  0  0  0  0  0  0  0  0
    2.2323   -0.3880   -6.5513 H   0  0  0  0  0  0  0  0  0  0  0  0
    4.4728    0.5319   -6.8609 H   0  0  0  0  0  0  0  0  0  0  0  0
    5.7271    1.5190   -4.9823 H   0  0  0  0  0  0  0  0  0  0  0  0
    6.5413    1.8112   -2.7498 H   0  0  0  0  0  0  0  0  0  0  0  0
    5.7343    3.2717   -2.1466 H   0  0  0  0  0  0  0  0  0  0  0  0
    6.3975   -0.2636   -1.0594 H   0  0  0  0  0  0  0  0  0  0  0  0
    7.0861   -0.8677    1.2211 H   0  0  0  0  0  0  0  0  0  0  0  0
    7.2983    0.8774    2.9537 H   0  0  0  0  0  0  0  0  0  0  0  0
    6.8272    3.2316    2.3906 H   0  0  0  0  0  0  0  0  0  0  0  0
    6.1482    3.8421    0.1080 H   0  0  0  0  0  0  0  0  0  0  0  0
  1  2  2  0  0  0  0
  2  3  1  0  0  0  0
  3  4  4  0  0  0  0
  4  5  4  0  0  0  0
  5  6  4  0  0  0  0
  6  7  4  0  0  0  0
  3  8  4  0  0  0  0
  7  8  4  0  0  0  0
  2  9  1  0  0  0  0
  9 10  1  0  0  0  0
 10 11  4  0  0  0  0
 11 12  4  0  0  0  0
 12 13  1  0  0  0  0
 10 14  1  0  0  0  0
 13 14  4  0  0  0  0
 14 15  4  0  0  0  0
 15 16  4  0  0  0  0
 16 17  4  0  0  0  0
 13 18  4  0  0  0  0
 17 18  4  0  0  0  0
 12 19  1  0  0  0  0
 19 20  1  0  0  0  0
 20 21  4  0  0  0  0
 21 22  4  0  0  0  0
 22 23  4  0  0  0  0
 23 24  4  0  0  0  0
 20 25  4  0  0  0  0
 24 25  4  0  0  0  0
  4 26  1  0  0  0  0
  5 27  1  0  0  0  0
  6 28  1  0  0  0  0
  7 29  1  0  0  0  0
  8 30  1  0  0  0  0
  9 31  1  0  0  0  0
  9 32  1  0  0  0  0
 11 33  1  0  0  0  0
 15 34  1  0  0  0  0
 16 35  1  0  0  0  0
 17 36  1  0  0  0  0
 18 37  1  0  0  0  0
 19 38  1  0  0  0  0
 19 39  1  0  0  0  0
 21 40  1  0  0  0  0
 22 41  1  0  0  0  0
 23 42  1  0  0  0  0
 24 43  1  0  0  0  0
 25 44  1  0  0  0  0
M  CHG  1   1   1
M  END
