 xtb: 6.7.1 (edcfbbe)
          12202407153D

 34 34  0     0  0            999 V2000
    0.3048   -0.8150    1.6091 C   0  0  0  0  0  0  0  0  0  0  0  0
    0.1917   -0.6987    0.2054 O   0  0  0  0  0  0  0  0  0  0  0  0
    0.8882   -1.6962   -0.4985 C   0  0  0  0  0  0  0  0  0  0  0  0
    0.5038   -1.6369   -1.9767 C   0  0  0  0  0  0  0  0  0  0  0  0
    1.0663   -0.5037   -2.7651 N   0  0  0  0  0  0  0  0  0  0  0  0
    2.5555   -0.6273   -2.9291 C   0  0  0  0  0  0  0  0  0  0  0  0
    3.0022   -1.8606   -3.6714 C   0  0  0  0  0  0  0  0  0  0  0  0
    3.2704   -3.0444   -2.9902 C   0  0  0  0  0  0  0  0  0  0  0  0
    3.7002   -4.1668   -3.6768 C   0  0  0  0  0  0  0  0  0  0  0  0
    3.8745   -4.1179   -5.0497 C   0  0  0  0  0  0  0  0  0  0  0  0
    3.6284   -2.9391   -5.7336 C   0  0  0  0  0  0  0  0  0  0  0  0
    3.1962   -1.8170   -5.0491 C   0  0  0  0  0  0  0  0  0  0  0  0
    0.4229   -0.5177   -4.0924 C   0  0  0  0  0  0  0  0  0  0  0  0
    0.7680    0.7859   -2.1163 C   0  0  0  0  0  0  0  0  0  0  0  0
   -0.0957   -1.7711    1.9582 H   0  0  0  0  0  0  0  0  0  0  0  0
   -0.2781    0.0002    2.0287 H   0  0  0  0  0  0  0  0  0  0  0  0
    1.3477   -0.7245    1.9299 H   0  0  0  0  0  0  0  0  0  0  0  0
    1.9727   -1.5924   -0.3409 H   0  0  0  0  0  0  0  0  0  0  0  0
    0.5984   -2.6917   -0.1287 H   0  0  0  0  0  0  0  0  0  0  0  0
    0.8125   -2.5630   -2.4648 H   0  0  0  0  0  0  0  0  0  0  0  0
   -0.5848   -1.5581   -2.0156 H   0  0  0  0  0  0  0  0  0  0  0  0
    2.8921    0.2613   -3.4675 H   0  0  0  0  0  0  0  0  0  0  0  0
    3.0023   -0.6107   -1.9342 H   0  0  0  0  0  0  0  0  0  0  0  0
    3.1658   -3.0891   -1.9159 H   0  0  0  0  0  0  0  0  0  0  0  0
    3.9086   -5.0764   -3.1360 H   0  0  0  0  0  0  0  0  0  0  0  0
    4.2151   -4.9912   -5.5826 H   0  0  0  0  0  0  0  0  0  0  0  0
    3.7808   -2.8888   -6.8001 H   0  0  0  0  0  0  0  0  0  0  0  0
    3.0299   -0.8973   -5.5907 H   0  0  0  0  0  0  0  0  0  0  0  0
   -0.6491   -0.3608   -3.9895 H   0  0  0  0  0  0  0  0  0  0  0  0
    0.8319    0.2783   -4.7118 H   0  0  0  0  0  0  0  0  0  0  0  0
    0.5970   -1.4716   -4.5869 H   0  0  0  0  0  0  0  0  0  0  0  0
   -0.2992    0.8636   -1.9203 H   0  0  0  0  0  0  0  0  0  0  0  0
    1.2851    0.8655   -1.1640 H   0  0  0  0  0  0  0  0  0  0  0  0
    1.0760    1.6069   -2.7610 H   0  0  0  0  0  0  0  0  0  0  0  0
  1  2  1  0  0  0  0
  2  3  1  0  0  0  0
  3  4  1  0  0  0  0
  4  5  1  0  0  0  0
  5  6  1  0  0  0  0
  6  7  1  0  0  0  0
  7  8  4  0  0  0  0
  8  9  4  0  0  0  0
  9 10  4  0  0  0  0
 10 11  4  0  0  0  0
  7 12  4  0  0  0  0
 11 12  4  0  0  0  0
  5 13  1  0  0  0  0
  5 14  1  0  0  0  0
  1 15  1  0  0  0  0
  1 16  1  0  0  0  0
  1 17  1  0  0  0  0
  3 18  1  0  0  0  0
  3 19  1  0  0  0  0
  4 20  1  0  0  0  0
  4 21  1  0  0  0  0
  6 22  1  0  0  0  0
  6 23  1  0  0  0  0
  8 24  1  0  0  0  0
  9 25  1  0  0  0  0
 10 26  1  0  0  0  0
 11 27  1  0  0  0  0
 12 28  1  0  0  0  0
 13 29  1  0  0  0  0
 13 30  1  0  0  0  0
 13 31  1  0  0  0  0
 14 32  1  0  0  0  0
 14 33  1  0  0  0  0
 14 34  1  0  0  0  0
M  CHG  1   1   1
M  END
