43

C          0.55327       -0.13866       -0.30466
O          0.32107       -1.24746       -1.18559
C          0.69619       -1.28153       -2.48754
C          1.49260       -0.14216       -2.99066
C          1.92857       -0.14416       -4.26093
C          2.76301        0.94164       -4.77123
C          2.24935        2.23184       -4.92203
C          3.08145        3.26834       -5.34575
C          4.43237        3.03073       -5.60324
O          5.15426        4.13037       -5.95836
C          6.50023        4.22922       -5.49357
C          6.56504        5.03067       -4.19396
C          6.14233        4.24332       -2.95720
N          7.00087        3.08102       -2.68287
C          6.54531        1.82778       -2.52136
N          7.60504        1.03272       -2.30979
C          8.75673        1.79974       -2.27229
C          8.37421        3.09438       -2.48246
C          7.52613       -0.41232       -2.13307
C          4.93104        1.73207       -5.52703
C          4.09819        0.68986       -5.10503
O          0.42462       -2.23597       -3.20213
H          0.06109       -0.35788        0.64675
H          0.11830        0.77781       -0.71335
H          1.62527       -0.02496       -0.11765
H          1.73754        0.67356       -2.32878
H          1.70552       -0.95946       -4.94734
H          1.19861        2.43880       -4.72705
H          2.67198        4.26848       -5.47422
H          7.01901        3.27026       -5.41137
H          7.03744        4.79500       -6.26375
H          7.58920        5.39425       -4.05543
H          5.91575        5.91069       -4.27693
H          6.19550        4.89066       -2.07350
H          5.10503        3.90391       -3.03583
H          5.50919        1.51221       -2.56129
H          9.70551        1.32336       -2.09251
H          8.90831        4.02795       -2.52832
H          6.82564       -0.63442       -1.32379
H          7.17225       -0.86200       -3.06460
H          8.51009       -0.81802       -1.88293
H          5.94910        1.49707       -5.82075
H          4.49238       -0.32332       -5.05039
