23

C          0.88504        0.12364        0.03675
N          0.43733        0.09892       -1.35116
C          0.18649       -1.04268       -2.09889
C         -0.21082       -0.62825       -3.33821
N         -0.19246        0.75267       -3.31596
C          0.20986        1.18665       -2.10864
C          0.32583        2.63279       -1.74252
C          0.26151        3.55261       -2.95608
C         -0.80871        3.06958       -3.93826
C         -0.51003        1.65164       -4.42985
H          0.77801       -0.86763        0.48535
H          0.27788        0.83745        0.59964
H          1.93532        0.42546        0.06246
H          0.32546       -2.01021       -1.64755
H         -0.50328       -1.13830       -4.23968
H          1.26710        2.75191       -1.19986
H         -0.51259        2.81817       -1.06389
H          1.23429        3.55522       -3.46276
H          0.05777        4.58030       -2.63742
H         -1.78610        3.08368       -3.44055
H         -0.86944        3.75061       -4.79402
H         -1.37066        1.25090       -4.97567
H          0.35588        1.65566       -5.10160
