 xtb: 6.7.1 (edcfbbe)
          12202407153D

 32 32  0     0  0            999 V2000
    1.3380   -0.1060   -0.1172 C   0  0  0  0  0  0  0  0  0  0  0  0
    0.8215   -0.3050    1.3028 C   0  0  0  0  0  0  0  0  0  0  0  0
    1.0349    0.9163    2.2009 C   0  0  0  0  0  0  0  0  0  0  0  0
    0.3120    2.1842    1.7433 C   0  0  0  0  0  0  0  0  0  0  0  0
   -1.2176    2.0732    1.7598 C   0  0  0  0  0  0  0  0  0  0  0  0
   -1.7172    1.9208    3.1071 N   0  0  0  0  0  0  0  0  0  0  0  0
   -1.9194    0.7442    3.7594 C   0  0  0  0  0  0  0  0  0  0  0  0
   -2.3233    1.0457    5.0260 C   0  0  0  0  0  0  0  0  0  0  0  0
   -2.3608    2.4011    5.1262 N   0  0  0  0  0  0  0  0  0  0  0  0
   -1.9841    2.9096    3.9550 C   0  0  0  0  0  0  0  0  0  0  0  0
   -2.7114    3.1741    6.3018 C   0  0  0  0  0  0  0  0  0  0  0  0
   -1.5435    4.0020    6.7667 C   0  0  0  0  0  0  0  0  0  0  0  0
   -1.6023    5.3058    6.9567 C   0  0  0  0  0  0  0  0  0  0  0  0
    0.7575    0.6393   -0.6552 H   0  0  0  0  0  0  0  0  0  0  0  0
    1.2739   -1.0396   -0.6694 H   0  0  0  0  0  0  0  0  0  0  0  0
    2.3784    0.2085   -0.1033 H   0  0  0  0  0  0  0  0  0  0  0  0
   -0.2353   -0.5803    1.2663 H   0  0  0  0  0  0  0  0  0  0  0  0
    1.3541   -1.1437    1.7541 H   0  0  0  0  0  0  0  0  0  0  0  0
    0.7357    0.6688    3.2235 H   0  0  0  0  0  0  0  0  0  0  0  0
    2.1029    1.1376    2.2255 H   0  0  0  0  0  0  0  0  0  0  0  0
    0.6128    3.0175    2.3823 H   0  0  0  0  0  0  0  0  0  0  0  0
    0.6145    2.4256    0.7254 H   0  0  0  0  0  0  0  0  0  0  0  0
   -1.6566    2.9755    1.3297 H   0  0  0  0  0  0  0  0  0  0  0  0
   -1.5389    1.2114    1.1740 H   0  0  0  0  0  0  0  0  0  0  0  0
   -1.7753   -0.2090    3.2934 H   0  0  0  0  0  0  0  0  0  0  0  0
   -2.5815    0.3969    5.8380 H   0  0  0  0  0  0  0  0  0  0  0  0
   -1.9149    3.9568    3.7334 H   0  0  0  0  0  0  0  0  0  0  0  0
   -3.5617    3.8207    6.0678 H   0  0  0  0  0  0  0  0  0  0  0  0
   -3.0097    2.4723    7.0849 H   0  0  0  0  0  0  0  0  0  0  0  0
   -0.6361    3.4476    6.9602 H   0  0  0  0  0  0  0  0  0  0  0  0
   -0.7537    5.8611    7.3141 H   0  0  0  0  0  0  0  0  0  0  0  0
   -2.5039    5.8700    6.7830 H   0  0  0  0  0  0  0  0  0  0  0  0
  1  2  1  0  0  0  0
  2  3  1  0  0  0  0
  3  4  1  0  0  0  0
  4  5  1  0  0  0  0
  5  6  1  0  0  0  0
  6  7  4  0  0  0  0
  7  8  2  0  0  0  0
  8  9  4  0  0  0  0
  6 10  4  0  0  0  0
  9 10  4  0  0  0  0
  9 11  1  0  0  0  0
 11 12  1  0  0  0  0
 12 13  2  0  0  0  0
  1 14  1  0  0  0  0
  1 15  1  0  0  0  0
  1 16  1  0  0  0  0
  2 17  1  0  0  0  0
  2 18  1  0  0  0  0
  3 19  1  0  0  0  0
  3 20  1  0  0  0  0
  4 21  1  0  0  0  0
  4 22  1  0  0  0  0
  5 23  1  0  0  0  0
  5 24  1  0  0  0  0
  7 25  1  0  0  0  0
  8 26  1  0  0  0  0
 10 27  1  0  0  0  0
 11 28  1  0  0  0  0
 11 29  1  0  0  0  0
 12 30  1  0  0  0  0
 13 31  1  0  0  0  0
 13 32  1  0  0  0  0
M  CHG  1   1   1
M  END
