 xtb: 6.7.1 (edcfbbe)
          12202407163D

 59 62  0     0  0            999 V2000
   -2.3343    0.0628    1.6912 Cl  0  0  0  0  0  0  0  0  0  0  0  0
   -0.7240   -0.0470    1.0924 C   0  0  0  0  0  0  0  0  0  0  0  0
    0.0144   -1.2038    1.3053 C   0  0  0  0  0  0  0  0  0  0  0  0
    1.3051   -1.2890    0.8195 C   0  0  0  0  0  0  0  0  0  0  0  0
    1.8732   -0.2259    0.1262 C   0  0  0  0  0  0  0  0  0  0  0  0
    1.1256    0.9268   -0.0768 C   0  0  0  0  0  0  0  0  0  0  0  0
   -0.1698    1.0195    0.3981 C   0  0  0  0  0  0  0  0  0  0  0  0
    3.2802   -0.3381   -0.4157 C   0  0  0  0  0  0  0  0  0  0  0  0
    4.2043   -0.8260    0.5820 N   0  0  0  0  0  0  0  0  0  0  0  0
    4.7883   -2.0583    0.5892 C   0  0  0  0  0  0  0  0  0  0  0  0
    5.5802   -2.1159    1.6869 C   0  0  0  0  0  0  0  0  0  0  0  0
    5.4657   -0.9200    2.3404 N   0  0  0  0  0  0  0  0  0  0  0  0
    4.6252   -0.1429    1.6518 C   0  0  0  0  0  0  0  0  0  0  0  0
    4.1586    1.2173    1.9800 C   0  0  0  0  0  0  0  0  0  0  0  0
    6.2914   -0.5778    3.4750 C   0  0  0  0  0  0  0  0  0  0  0  0
    7.7677   -0.4100    3.0777 C   0  0  0  0  0  0  0  0  0  0  0  0
    8.2112    1.0035    2.6172 C   0  0  0  0  0  0  0  0  0  0  0  0
    7.6047    2.0482    3.5413 C   0  0  0  0  0  0  0  0  0  0  0  0
    6.8043    3.0844    3.0778 C   0  0  0  0  0  0  0  0  0  0  0  0
    6.2621    4.0077    3.9587 C   0  0  0  0  0  0  0  0  0  0  0  0
    6.5135    3.9103    5.3150 C   0  0  0  0  0  0  0  0  0  0  0  0
    7.3158    2.8843    5.7876 C   0  0  0  0  0  0  0  0  0  0  0  0
    7.8543    1.9619    4.9101 C   0  0  0  0  0  0  0  0  0  0  0  0
    9.7387    1.0737    2.6438 C   0  0  0  0  0  0  0  0  0  0  0  0
   10.4938    0.0451    2.0881 C   0  0  0  0  0  0  0  0  0  0  0  0
   11.8755    0.1092    2.0731 C   0  0  0  0  0  0  0  0  0  0  0  0
   12.5298    1.2085    2.6017 C   0  0  0  0  0  0  0  0  0  0  0  0
   11.7889    2.2488    3.1329 C   0  0  0  0  0  0  0  0  0  0  0  0
   10.4056    2.1857    3.1484 C   0  0  0  0  0  0  0  0  0  0  0  0
    7.7819    1.2465    1.1581 C   0  0  0  0  0  0  0  0  0  0  0  0
    6.8901    0.6222    0.6116 O   0  0  0  0  0  0  0  0  0  0  0  0
    8.4591    2.2199    0.5309 N   0  0  0  0  0  0  0  0  0  0  0  0
   -0.4242   -2.0308    1.8397 H   0  0  0  0  0  0  0  0  0  0  0  0
    1.8708   -2.1958    0.9783 H   0  0  0  0  0  0  0  0  0  0  0  0
    1.5516    1.7569   -0.6202 H   0  0  0  0  0  0  0  0  0  0  0  0
   -0.7496    1.9127    0.2314 H   0  0  0  0  0  0  0  0  0  0  0  0
    3.3009   -1.0388   -1.2549 H   0  0  0  0  0  0  0  0  0  0  0  0
    3.6268    0.6348   -0.7733 H   0  0  0  0  0  0  0  0  0  0  0  0
    4.6092   -2.7851   -0.1759 H   0  0  0  0  0  0  0  0  0  0  0  0
    6.2027   -2.9073    2.0497 H   0  0  0  0  0  0  0  0  0  0  0  0
    4.4548    1.9031    1.1869 H   0  0  0  0  0  0  0  0  0  0  0  0
    3.0706    1.2311    2.0475 H   0  0  0  0  0  0  0  0  0  0  0  0
    4.5807    1.5745    2.9135 H   0  0  0  0  0  0  0  0  0  0  0  0
    5.9124    0.3274    3.9490 H   0  0  0  0  0  0  0  0  0  0  0  0
    6.2149   -1.4001    4.1916 H   0  0  0  0  0  0  0  0  0  0  0  0
    8.3778   -0.6791    3.9399 H   0  0  0  0  0  0  0  0  0  0  0  0
    7.9841   -1.1214    2.2810 H   0  0  0  0  0  0  0  0  0  0  0  0
    6.6031    3.1867    2.0222 H   0  0  0  0  0  0  0  0  0  0  0  0
    5.6457    4.8077    3.5776 H   0  0  0  0  0  0  0  0  0  0  0  0
    6.0953    4.6322    5.9987 H   0  0  0  0  0  0  0  0  0  0  0  0
    7.5287    2.8051    6.8424 H   0  0  0  0  0  0  0  0  0  0  0  0
    8.4940    1.1802    5.2905 H   0  0  0  0  0  0  0  0  0  0  0  0
   10.0096   -0.8143    1.6504 H   0  0  0  0  0  0  0  0  0  0  0  0
   12.4412   -0.7027    1.6426 H   0  0  0  0  0  0  0  0  0  0  0  0
   13.6073    1.2567    2.5923 H   0  0  0  0  0  0  0  0  0  0  0  0
   12.2848    3.1178    3.5372 H   0  0  0  0  0  0  0  0  0  0  0  0
    9.8481    3.0117    3.5645 H   0  0  0  0  0  0  0  0  0  0  0  0
    9.2347    2.6888    0.9683 H   0  0  0  0  0  0  0  0  0  0  0  0
    8.2695    2.4002   -0.4420 H   0  0  0  0  0  0  0  0  0  0  0  0
  1  2  1  0  0  0  0
  2  3  4  0  0  0  0
  3  4  4  0  0  0  0
  4  5  4  0  0  0  0
  5  6  4  0  0  0  0
  2  7  4  0  0  0  0
  6  7  4  0  0  0  0
  5  8  1  0  0  0  0
  8  9  1  0  0  0  0
  9 10  4  0  0  0  0
 10 11  2  0  0  0  0
 11 12  4  0  0  0  0
  9 13  4  0  0  0  0
 12 13  4  0  0  0  0
 13 14  1  0  0  0  0
 12 15  1  0  0  0  0
 15 16  1  0  0  0  0
 16 17  1  0  0  0  0
 17 18  1  0  0  0  0
 18 19  4  0  0  0  0
 19 20  4  0  0  0  0
 20 21  4  0  0  0  0
 21 22  4  0  0  0  0
 18 23  4  0  0  0  0
 22 23  4  0  0  0  0
 17 24  1  0  0  0  0
 24 25  4  0  0  0  0
 25 26  4  0  0  0  0
 26 27  4  0  0  0  0
 27 28  4  0  0  0  0
 24 29  4  0  0  0  0
 28 29  4  0  0  0  0
 17 30  1  0  0  0  0
 30 31  2  0  0  0  0
 30 32  4  0  0  0  0
  3 33  1  0  0  0  0
  4 34  1  0  0  0  0
  6 35  1  0  0  0  0
  7 36  1  0  0  0  0
  8 37  1  0  0  0  0
  8 38  1  0  0  0  0
 10 39  1  0  0  0  0
 11 40  1  0  0  0  0
 14 41  1  0  0  0  0
 14 42  1  0  0  0  0
 14 43  1  0  0  0  0
 15 44  1  0  0  0  0
 15 45  1  0  0  0  0
 16 46  1  0  0  0  0
 16 47  1  0  0  0  0
 19 48  1  0  0  0  0
 20 49  1  0  0  0  0
 21 50  1  0  0  0  0
 22 51  1  0  0  0  0
 23 52  1  0  0  0  0
 25 53  1  0  0  0  0
 26 54  1  0  0  0  0
 27 55  1  0  0  0  0
 28 56  1  0  0  0  0
 29 57  1  0  0  0  0
 32 58  1  0  0  0  0
 32 59  1  0  0  0  0
M  CHG  1   1   1
M  END
