62

C          1.34206       -0.24924        0.34596
C          1.62878        1.24423        0.36562
C          2.28408        1.75995       -0.91911
C          1.48120        1.55073       -2.21017
C          0.04186        2.07558       -2.18535
C         -0.07662        3.59536       -2.04219
C          0.10212        4.37669       -3.34768
C         -0.93408        4.13949       -4.45433
N         -2.32533        4.41465       -3.97219
C         -3.17881        4.96579       -5.00686
C         -4.39272        4.41955       -4.89121
N         -4.42134        3.49734       -3.87991
C         -3.08302        3.21438       -3.42714
C         -5.48682        2.54788       -3.59420
C         -6.17207        2.92005       -2.27371
C         -7.41616        3.78533       -2.46379
P         -8.85434        2.90695       -3.08389
O         -8.55760        1.93895       -4.18606
O         -9.59072        2.28559       -1.79621
C         -9.07632        1.19360       -1.05960
C         -8.83895       -0.04305       -1.90381
O         -9.84775        4.10435       -3.50918
C        -11.19924        3.79310       -3.81427
C        -11.34432        3.38885       -5.26698
H          0.60340       -0.50827       -0.41815
H          0.94172       -0.56745        1.31403
H          2.25503       -0.82100        0.15270
H          0.70266        1.79302        0.56913
H          2.30055        1.45811        1.20579
H          2.50209        2.82679       -0.79340
H          3.25857        1.26972       -1.03904
H          2.02616        2.01659       -3.03993
H          1.45205        0.47783       -2.43642
H         -0.46230        1.73841       -3.09656
H         -0.50263        1.60243       -1.36069
H         -1.04884        3.83979       -1.60421
H          0.65432        3.96397       -1.31455
H          0.09608        5.44627       -3.09924
H          1.09795        4.17005       -3.75784
H         -0.71521        4.83669       -5.27305
H         -0.89137        3.12464       -4.86293
H         -2.31079        5.09570       -3.20483
H         -2.90384        5.73202       -5.72415
H         -5.27427        4.62902       -5.48603
H         -2.99694        3.20409       -2.33837
H         -2.68662        2.29997       -3.88208
H         -6.18923        2.50518       -4.43041
H         -5.05512        1.54382       -3.49839
H         -6.45184        1.99618       -1.76295
H         -5.47145        3.44588       -1.61352
H         -7.68996        4.24894       -1.50949
H         -7.18307        4.60372       -3.15477
H         -8.16883        1.49754       -0.53218
H         -9.81958        0.95569       -0.29158
H         -7.97114        0.08794       -2.55678
H         -8.64231       -0.91127       -1.26801
H         -9.70276       -0.25538       -2.54128
H        -11.57628        3.00645       -3.15343
H        -11.79212        4.69307       -3.62286
H        -10.81640        2.45215       -5.46755
H        -12.39815        3.24884       -5.52474
H        -10.91429        4.14876       -5.92678
