31

C          1.11971        0.24261        0.03554
C          0.71353       -1.14818        0.49527
C          1.11902       -1.45888        1.93773
C          0.47374       -0.56282        2.99326
N         -0.99426       -0.59884        2.96202
N         -1.64814        0.54559        2.82081
N         -2.90597        0.14618        2.86155
C         -3.98143        1.13943        2.80803
C         -5.32757        0.47341        2.52057
C         -5.50782       -0.79391        3.36374
C         -4.43287       -1.83884        3.05139
C         -3.09099       -1.22878        3.02516
C         -1.81398       -1.71372        3.10850
H          0.57931        1.01989        0.58329
H          0.89146        0.36689       -1.02799
H          2.19360        0.40385        0.17217
H         -0.36767       -1.27238        0.36856
H          1.19074       -1.88507       -0.16215
H          0.86335       -2.50436        2.14779
H          2.20920       -1.38309        2.03185
H          0.78279       -0.88982        3.99329
H          0.81294        0.47314        2.87843
H         -3.75064        1.88349        2.03835
H         -4.00892        1.64270        3.78172
H         -5.38384        0.20851        1.45765
H         -6.13940        1.18082        2.72177
H         -5.46490       -0.52708        4.42748
H         -6.49857       -1.22522        3.18130
H         -4.45947       -2.64224        3.79460
H         -4.62058       -2.28329        2.06727
H         -1.37456       -2.68515        3.23581
