 xtb: 6.7.1 (edcfbbe)
          12202407153D

 61 62  0     0  0            999 V2000
    2.0448    0.2200    0.6048 C   0  0  0  0  0  0  0  0  0  0  0  0
    1.4328    1.5820    0.9091 C   0  0  0  0  0  0  0  0  0  0  0  0
    1.7979    2.6510   -0.1224 C   0  0  0  0  0  0  0  0  0  0  0  0
    1.3296    2.3601   -1.5502 C   0  0  0  0  0  0  0  0  0  0  0  0
   -0.1764    2.1353   -1.7104 C   0  0  0  0  0  0  0  0  0  0  0  0
   -1.0459    3.3205   -1.2844 C   0  0  0  0  0  0  0  0  0  0  0  0
   -0.9571    4.5253   -2.2237 C   0  0  0  0  0  0  0  0  0  0  0  0
   -1.7321    4.3337   -3.5324 C   0  0  0  0  0  0  0  0  0  0  0  0
   -3.1615    4.2914   -3.3066 N   0  0  0  0  0  0  0  0  0  0  0  0
   -3.9678    5.3383   -3.0880 C   0  0  0  0  0  0  0  0  0  0  0  0
   -3.5576    6.7575   -3.0798 C   0  0  0  0  0  0  0  0  0  0  0  0
   -5.2172    4.9174   -2.8469 N   0  0  0  0  0  0  0  0  0  0  0  0
   -5.2295    3.5400   -2.9088 C   0  0  0  0  0  0  0  0  0  0  0  0
   -3.9138    3.1394   -3.2008 C   0  0  0  0  0  0  0  0  0  0  0  0
   -3.5827    1.7965   -3.3303 C   0  0  0  0  0  0  0  0  0  0  0  0
   -4.5926    0.8683   -3.1542 C   0  0  0  0  0  0  0  0  0  0  0  0
   -4.2335   -0.8001   -3.2982 Cl  0  0  0  0  0  0  0  0  0  0  0  0
   -5.9142    1.2715   -2.8544 C   0  0  0  0  0  0  0  0  0  0  0  0
   -6.2438    2.6085   -2.7273 C   0  0  0  0  0  0  0  0  0  0  0  0
   -7.1306    0.0840   -2.6460 Cl  0  0  0  0  0  0  0  0  0  0  0  0
   -6.3661    5.7620   -2.5986 C   0  0  0  0  0  0  0  0  0  0  0  0
   -7.0297    6.2371   -3.8983 C   0  0  0  0  0  0  0  0  0  0  0  0
   -7.7287    5.1197   -4.6738 C   0  0  0  0  0  0  0  0  0  0  0  0
   -9.0673    4.6843   -4.0718 C   0  0  0  0  0  0  0  0  0  0  0  0
  -10.1967    5.6785   -4.3357 C   0  0  0  0  0  0  0  0  0  0  0  0
  -10.5940    5.7315   -5.7947 C   0  0  0  0  0  0  0  0  0  0  0  0
  -10.0403    5.1572   -6.6925 O   0  0  0  0  0  0  0  0  0  0  0  0
  -11.6564    6.5162   -5.9739 O   0  0  0  0  0  0  0  0  0  0  0  0
    1.6348   -0.2041   -0.3084 H   0  0  0  0  0  0  0  0  0  0  0  0
    1.8416   -0.4724    1.4181 H   0  0  0  0  0  0  0  0  0  0  0  0
    3.1229    0.3053    0.4916 H   0  0  0  0  0  0  0  0  0  0  0  0
    0.3475    1.4873    0.9841 H   0  0  0  0  0  0  0  0  0  0  0  0
    1.7945    1.9191    1.8830 H   0  0  0  0  0  0  0  0  0  0  0  0
    1.3960    3.6116    0.2084 H   0  0  0  0  0  0  0  0  0  0  0  0
    2.8849    2.7525   -0.1453 H   0  0  0  0  0  0  0  0  0  0  0  0
    1.6484    3.1874   -2.1890 H   0  0  0  0  0  0  0  0  0  0  0  0
    1.8403    1.4674   -1.9132 H   0  0  0  0  0  0  0  0  0  0  0  0
   -0.3684    1.8888   -2.7578 H   0  0  0  0  0  0  0  0  0  0  0  0
   -0.4691    1.2675   -1.1191 H   0  0  0  0  0  0  0  0  0  0  0  0
   -2.0864    2.9942   -1.2065 H   0  0  0  0  0  0  0  0  0  0  0  0
   -0.7368    3.6369   -0.2889 H   0  0  0  0  0  0  0  0  0  0  0  0
   -1.3363    5.4123   -1.7130 H   0  0  0  0  0  0  0  0  0  0  0  0
    0.0862    4.7119   -2.4753 H   0  0  0  0  0  0  0  0  0  0  0  0
   -1.5073    5.1460   -4.2273 H   0  0  0  0  0  0  0  0  0  0  0  0
   -1.4452    3.3960   -4.0071 H   0  0  0  0  0  0  0  0  0  0  0  0
   -4.2519    7.3643   -3.6575 H   0  0  0  0  0  0  0  0  0  0  0  0
   -3.5528    7.1431   -2.0589 H   0  0  0  0  0  0  0  0  0  0  0  0
   -2.5611    6.8816   -3.4916 H   0  0  0  0  0  0  0  0  0  0  0  0
   -2.5827    1.4635   -3.5485 H   0  0  0  0  0  0  0  0  0  0  0  0
   -7.2579    2.8920   -2.5044 H   0  0  0  0  0  0  0  0  0  0  0  0
   -7.0757    5.1876   -2.0029 H   0  0  0  0  0  0  0  0  0  0  0  0
   -6.0406    6.6220   -2.0095 H   0  0  0  0  0  0  0  0  0  0  0  0
   -7.7492    7.0125   -3.6367 H   0  0  0  0  0  0  0  0  0  0  0  0
   -6.2749    6.6948   -4.5398 H   0  0  0  0  0  0  0  0  0  0  0  0
   -7.9159    5.4577   -5.6921 H   0  0  0  0  0  0  0  0  0  0  0  0
   -7.0656    4.2555   -4.7443 H   0  0  0  0  0  0  0  0  0  0  0  0
   -9.3466    3.7297   -4.5193 H   0  0  0  0  0  0  0  0  0  0  0  0
   -8.9788    4.5395   -2.9931 H   0  0  0  0  0  0  0  0  0  0  0  0
  -11.0874    5.4034   -3.7682 H   0  0  0  0  0  0  0  0  0  0  0  0
   -9.9264    6.6914   -4.0313 H   0  0  0  0  0  0  0  0  0  0  0  0
  -11.9201    6.5426   -6.9078 H   0  0  0  0  0  0  0  0  0  0  0  0
  1  2  1  0  0  0  0
  2  3  1  0  0  0  0
  3  4  1  0  0  0  0
  4  5  1  0  0  0  0
  5  6  1  0  0  0  0
  6  7  1  0  0  0  0
  7  8  1  0  0  0  0
  8  9  1  0  0  0  0
  9 10  4  0  0  0  0
 10 11  1  0  0  0  0
 10 12  4  0  0  0  0
 12 13  1  0  0  0  0
  9 14  1  0  0  0  0
 13 14  4  0  0  0  0
 14 15  4  0  0  0  0
 15 16  4  0  0  0  0
 16 17  1  0  0  0  0
 16 18  4  0  0  0  0
 13 19  4  0  0  0  0
 18 19  4  0  0  0  0
 18 20  1  0  0  0  0
 12 21  1  0  0  0  0
 21 22  1  0  0  0  0
 22 23  1  0  0  0  0
 23 24  1  0  0  0  0
 24 25  1  0  0  0  0
 25 26  1  0  0  0  0
 26 27  2  0  0  0  0
 26 28  1  0  0  0  0
  1 29  1  0  0  0  0
  1 30  1  0  0  0  0
  1 31  1  0  0  0  0
  2 32  1  0  0  0  0
  2 33  1  0  0  0  0
  3 34  1  0  0  0  0
  3 35  1  0  0  0  0
  4 36  1  0  0  0  0
  4 37  1  0  0  0  0
  5 38  1  0  0  0  0
  5 39  1  0  0  0  0
  6 40  1  0  0  0  0
  6 41  1  0  0  0  0
  7 42  1  0  0  0  0
  7 43  1  0  0  0  0
  8 44  1  0  0  0  0
  8 45  1  0  0  0  0
 11 46  1  0  0  0  0
 11 47  1  0  0  0  0
 11 48  1  0  0  0  0
 15 49  1  0  0  0  0
 19 50  1  0  0  0  0
 21 51  1  0  0  0  0
 21 52  1  0  0  0  0
 22 53  1  0  0  0  0
 22 54  1  0  0  0  0
 23 55  1  0  0  0  0
 23 56  1  0  0  0  0
 24 57  1  0  0  0  0
 24 58  1  0  0  0  0
 25 59  1  0  0  0  0
 25 60  1  0  0  0  0
 28 61  1  0  0  0  0
M  CHG  1   1   1
M  END
