45

C          2.34696        2.22815       -0.41323
O          1.65572        1.26145        0.37159
C          1.67470        1.58543        1.75660
C          0.79604        0.64745        2.61374
N          0.96742       -0.87212        2.37044
C          2.49446       -1.27294        2.44908
C          3.22438       -0.89985        3.75497
O          2.71043       -1.64341        4.85788
C          3.39619       -1.33633        6.06971
C          0.22798       -1.66303        3.49803
C         -1.29992       -1.74082        3.40000
O         -1.66262       -2.84126        2.56193
C         -3.06732       -3.08761        2.59591
C          0.52094       -1.34106        0.93957
C         -0.83019       -0.88277        0.34264
O         -1.16247        0.47848        0.58634
C         -2.40202        0.83772       -0.01675
H          2.27270        1.93366       -1.46339
H          3.40354        2.25951       -0.13099
H          1.89339        3.21668       -0.29385
H          2.71169        1.55198        2.10781
H          1.31472        2.61152        1.90036
H          1.03831        0.82972        3.66779
H         -0.26235        0.88587        2.52532
H          2.52738       -2.35850        2.30033
H          2.99627       -0.79103        1.60316
H          4.28525       -1.14991        3.63278
H          3.15571        0.17101        3.96428
H          4.45828       -1.58299        5.98204
H          3.27208       -0.27770        6.31751
H          2.95958       -1.93670        6.87221
H          0.64846       -2.67423        3.50040
H          0.47089       -1.15374        4.43487
H         -1.69426       -1.93403        4.40503
H         -1.74511       -0.81218        3.03296
H         -3.37927       -3.37602        3.60395
H         -3.61837       -2.20089        2.26801
H         -3.28709       -3.91083        1.91099
H          1.31251       -1.02446        0.25347
H          0.55918       -2.43739        0.95073
H         -0.76925       -1.03369       -0.74330
H         -1.64875       -1.51613        0.68048
H         -2.34340        0.73154       -1.10383
H         -3.21345        0.22038        0.38142
H         -2.60985        1.88341        0.22458
