 xtb: 6.7.1 (edcfbbe)
          12202407163D

 41 41  0     0  0            999 V2000
    2.5701   -1.4015    1.2363 F   0  0  0  0  0  0  0  0  0  0  0  0
    2.3495   -0.8256    0.0347 C   0  0  0  0  0  0  0  0  0  0  0  0
    3.0260   -1.6996   -1.0610 C   0  0  0  0  0  0  0  0  0  0  0  0
    2.2332   -2.9040   -1.5201 N   0  0  0  0  0  0  0  0  0  0  0  0
    3.1860   -3.7562   -2.2665 C   0  0  0  0  0  0  0  0  0  0  0  0
    1.6541   -3.6465   -0.3632 C   0  0  0  0  0  0  0  0  0  0  0  0
    0.7427   -4.7908   -0.8279 C   0  0  0  0  0  0  0  0  0  0  0  0
   -0.2935   -4.2989   -1.6314 O   0  0  0  0  0  0  0  0  0  0  0  0
    0.1990   -3.6648   -2.7822 C   0  0  0  0  0  0  0  0  0  0  0  0
    1.1132   -2.4865   -2.4264 C   0  0  0  0  0  0  0  0  0  0  0  0
    3.3205   -0.9900   -2.2118 O   0  0  0  0  0  0  0  0  0  0  0  0
    4.4556   -0.1235   -2.1967 C   0  0  0  0  0  0  0  0  0  0  0  0
    4.6351    0.4176   -3.6156 C   0  0  0  0  0  0  0  0  0  0  0  0
    3.3379    0.8835   -4.2812 C   0  0  0  0  0  0  0  0  0  0  0  0
    2.4924    1.9434   -3.5121 C   0  0  0  0  0  0  0  0  0  0  0  0
    3.2718    3.2241   -3.1063 C   0  0  0  0  0  0  0  0  0  0  0  0
    3.8912    2.9853   -1.9296 F   0  0  0  0  0  0  0  0  0  0  0  0
    4.2298    3.5115   -3.9943 F   0  0  0  0  0  0  0  0  0  0  0  0
    1.4286    2.2860   -4.2561 F   0  0  0  0  0  0  0  0  0  0  0  0
    1.9934    1.3864   -2.3767 F   0  0  0  0  0  0  0  0  0  0  0  0
    3.6242    1.3913   -5.4960 F   0  0  0  0  0  0  0  0  0  0  0  0
    2.5275   -0.1844   -4.5206 F   0  0  0  0  0  0  0  0  0  0  0  0
    1.0208   -0.7033   -0.0997 F   0  0  0  0  0  0  0  0  0  0  0  0
    2.7853    0.1841    0.0464 H   0  0  0  0  0  0  0  0  0  0  0  0
    3.9455   -2.0797   -0.5756 H   0  0  0  0  0  0  0  0  0  0  0  0
    3.6482   -3.1645   -3.0544 H   0  0  0  0  0  0  0  0  0  0  0  0
    3.9531   -4.1386   -1.5948 H   0  0  0  0  0  0  0  0  0  0  0  0
    2.6713   -4.5962   -2.7216 H   0  0  0  0  0  0  0  0  0  0  0  0
    1.0284   -2.9686    0.2178 H   0  0  0  0  0  0  0  0  0  0  0  0
    2.4599   -4.0240    0.2680 H   0  0  0  0  0  0  0  0  0  0  0  0
    0.2670   -5.2349    0.0487 H   0  0  0  0  0  0  0  0  0  0  0  0
    1.3084   -5.5763   -1.3482 H   0  0  0  0  0  0  0  0  0  0  0  0
    0.7031   -4.3883   -3.4383 H   0  0  0  0  0  0  0  0  0  0  0  0
   -0.6721   -3.2759   -3.3126 H   0  0  0  0  0  0  0  0  0  0  0  0
    1.5350   -2.0405   -3.3258 H   0  0  0  0  0  0  0  0  0  0  0  0
    0.5137   -1.7372   -1.9120 H   0  0  0  0  0  0  0  0  0  0  0  0
    4.3074    0.6944   -1.4859 H   0  0  0  0  0  0  0  0  0  0  0  0
    5.3539   -0.6823   -1.9054 H   0  0  0  0  0  0  0  0  0  0  0  0
    5.3427    1.2473   -3.6094 H   0  0  0  0  0  0  0  0  0  0  0  0
    5.0305   -0.3619   -4.2715 H   0  0  0  0  0  0  0  0  0  0  0  0
    2.5938    4.0830   -2.9951 H   0  0  0  0  0  0  0  0  0  0  0  0
  1  2  1  0  0  0  0
  2  3  1  0  0  0  0
  3  4  1  0  0  0  0
  4  5  1  0  0  0  0
  4  6  1  0  0  0  0
  6  7  1  0  0  0  0
  7  8  1  0  0  0  0
  8  9  1  0  0  0  0
  4 10  1  0  0  0  0
  9 10  1  0  0  0  0
  3 11  1  0  0  0  0
 11 12  1  0  0  0  0
 12 13  1  0  0  0  0
 13 14  1  0  0  0  0
 14 15  1  0  0  0  0
 15 16  1  0  0  0  0
 16 17  1  0  0  0  0
 16 18  1  0  0  0  0
 15 19  1  0  0  0  0
 15 20  1  0  0  0  0
 14 21  1  0  0  0  0
 14 22  1  0  0  0  0
  2 23  1  0  0  0  0
  2 24  1  0  0  0  0
  3 25  1  0  0  0  0
  5 26  1  0  0  0  0
  5 27  1  0  0  0  0
  5 28  1  0  0  0  0
  6 29  1  0  0  0  0
  6 30  1  0  0  0  0
  7 31  1  0  0  0  0
  7 32  1  0  0  0  0
  9 33  1  0  0  0  0
  9 34  1  0  0  0  0
 10 35  1  0  0  0  0
 10 36  1  0  0  0  0
 12 37  1  0  0  0  0
 12 38  1  0  0  0  0
 13 39  1  0  0  0  0
 13 40  1  0  0  0  0
 16 41  1  0  0  0  0
M  CHG  1   1   1
M  END
