 xtb: 6.7.1 (edcfbbe)
          12202407163D

 22 22  0     0  0            999 V2000
    0.7903    0.4657   -0.1107 C   0  0  0  0  0  0  0  0  0  0  0  0
    0.3312   -0.0014    1.2711 C   0  0  0  0  0  0  0  0  0  0  0  0
    0.9393    0.7622    2.3445 N   0  0  0  0  0  0  0  0  0  0  0  0
    0.6986    2.0784    2.4129 C   0  0  0  0  0  0  0  0  0  0  0  0
    1.1265    2.8225    3.4966 C   0  0  0  0  0  0  0  0  0  0  0  0
    1.8190    2.1994    4.5224 C   0  0  0  0  0  0  0  0  0  0  0  0
    2.0713    0.8342    4.4235 C   0  0  0  0  0  0  0  0  0  0  0  0
    1.6065    0.1422    3.3289 C   0  0  0  0  0  0  0  0  0  0  0  0
   -1.2173    0.1778    1.4147 C   0  0  0  0  0  0  0  0  0  0  0  0
   -1.6664    1.0872    2.0672 O   0  0  0  0  0  0  0  0  0  0  0  0
   -1.9338   -0.7361    0.7600 N   0  0  0  0  0  0  0  0  0  0  0  0
    0.4500    1.4731   -0.3331 H   0  0  0  0  0  0  0  0  0  0  0  0
    0.3913   -0.1964   -0.8738 H   0  0  0  0  0  0  0  0  0  0  0  0
    1.8759    0.4398   -0.1751 H   0  0  0  0  0  0  0  0  0  0  0  0
    0.5898   -1.0553    1.4089 H   0  0  0  0  0  0  0  0  0  0  0  0
    0.1682    2.5416    1.5976 H   0  0  0  0  0  0  0  0  0  0  0  0
    0.9105    3.8781    3.5298 H   0  0  0  0  0  0  0  0  0  0  0  0
    2.1586    2.7586    5.3798 H   0  0  0  0  0  0  0  0  0  0  0  0
    2.6137    0.3107    5.1944 H   0  0  0  0  0  0  0  0  0  0  0  0
    1.7667   -0.9212    3.2281 H   0  0  0  0  0  0  0  0  0  0  0  0
   -1.5264   -1.4834    0.2246 H   0  0  0  0  0  0  0  0  0  0  0  0
   -2.9401   -0.6672    0.7919 H   0  0  0  0  0  0  0  0  0  0  0  0
  1  2  1  0  0  0  0
  2  3  1  0  0  0  0
  3  4  4  0  0  0  0
  4  5  4  0  0  0  0
  5  6  4  0  0  0  0
  6  7  4  0  0  0  0
  3  8  4  0  0  0  0
  7  8  4  0  0  0  0
  2  9  1  0  0  0  0
  9 10  2  0  0  0  0
  9 11  4  0  0  0  0
  1 12  1  0  0  0  0
  1 13  1  0  0  0  0
  1 14  1  0  0  0  0
  2 15  1  0  0  0  0
  4 16  1  0  0  0  0
  5 17  1  0  0  0  0
  6 18  1  0  0  0  0
  7 19  1  0  0  0  0
  8 20  1  0  0  0  0
 11 21  1  0  0  0  0
 11 22  1  0  0  0  0
M  CHG  1   1   1
M  END
