59

C          1.07864       -0.16354       -0.51387
C          0.59120       -1.57195       -0.10480
C          1.03197       -2.09321        1.29268
C          0.70194       -3.43026        1.62689
C          1.09350       -4.02675        2.82806
C          1.88095       -3.27067        3.70488
C          2.19016       -1.91028        3.47844
C          1.74008       -1.35124        2.26334
O          2.00719       -0.04068        2.02775
C          2.97024       -1.15524        4.59016
C          2.17981       -1.25422        5.92060
C          4.35726       -1.81324        4.77739
C          3.22835        0.35128        4.36558
N          0.69555       -5.45606        3.20787
C          0.25150       -5.45199        4.70246
C         -0.71659       -6.51630        5.15852
C         -2.06914       -6.18290        5.35268
C         -2.98332       -7.14280        5.78442
C         -2.56041       -8.44684        6.02243
C         -1.22265       -8.79109        5.83686
C         -0.30129       -7.83090        5.41280
C         -0.44283       -5.97330        2.32947
C          1.91653       -6.33806        2.98873
C         -0.95343       -1.54350       -0.16295
C          1.12105       -2.52635       -1.20728
H          0.63031        0.62229        0.10224
H          0.79051        0.06778       -1.54727
H          2.16998       -0.08132       -0.46387
H          0.12613       -3.99076        0.90059
H          2.25738       -3.72974        4.61401
H          1.16576        0.44313        2.10561
H          2.07997       -2.28456        6.27789
H          2.67687       -0.69350        6.72100
H          1.16835       -0.84597        5.80619
H          4.93419       -1.78289        3.84564
H          4.94001       -1.29467        5.54801
H          4.28689       -2.86130        5.08699
H          3.84915        0.53139        3.48116
H          2.29247        0.91296        4.26794
H          3.76665        0.78933        5.21561
H          1.15893       -5.51335        5.31683
H         -0.20846       -4.47339        4.89448
H         -2.42664       -5.16738        5.18744
H         -4.02506       -6.87266        5.94721
H         -3.27303       -9.19400        6.36640
H         -0.89910       -9.81058        6.03814
H          0.73897       -8.12763        5.30300
H         -0.10256       -6.02479        1.29038
H         -0.69466       -6.99353        2.63232
H         -1.30786       -5.31231        2.43972
H          2.23246       -6.24804        1.94380
H          2.72044       -6.02069        3.65979
H          1.64011       -7.37410        3.20116
H         -1.30668       -1.16312       -1.12859
H         -1.39450       -2.53756       -0.03149
H         -1.36348       -0.89618        0.62132
H          0.86269       -2.15916       -2.20787
H          2.21288       -2.61425       -1.15666
H          0.70395       -3.53574       -1.13392
