49

O          0.91105        1.83646       -0.51204
C          1.78544        0.99420       -0.31151
C          2.41794        0.28383       -1.46666
C          3.22351       -0.85310       -1.31216
C          3.87835       -1.40427       -2.41759
C          3.71875       -0.83937       -3.68092
C          2.89163        0.26859       -3.84828
C          2.24096        0.82795       -2.74679
C          2.31194        0.73025        1.08831
N          2.52970        1.96353        1.88678
C          3.19251        3.06832        1.46411
C          3.67402        3.35975        0.07494
N          3.40330        3.86154        2.54432
C          2.97758        3.20425        3.69813
C          2.28452        2.07076        3.25610
C          1.60879        1.22620        4.13659
C          1.69438        1.55029        5.49622
C          2.45473        2.64306        5.94696
C          3.13094        3.48439        5.05539
N          4.24678        4.97689        2.39969
C          3.90106        6.06099        3.03256
C          2.72519        6.41257        3.84560
C          1.42075        6.05184        3.49934
C          0.36630        6.36369        4.36624
C          0.62674        7.04708        5.56521
C          1.92845        7.45207        5.88633
C          2.97530        7.14424        5.01623
N         -0.46741        7.32040        6.50628
O         -1.62220        7.09625        6.12048
O         -0.16142        7.73235        7.63277
H          3.36654       -1.34705       -0.35619
H          4.51542       -2.27913       -2.29772
H          4.23182       -1.26971       -4.53913
H          2.75637        0.69921       -4.83858
H          1.60484        1.69880       -2.89931
H          1.58950        0.08033        1.59004
H          3.28353        0.23103        1.07643
H          2.80329        3.63411       -0.52043
H          4.38616        4.18351        0.09993
H          4.16741        2.46222       -0.29823
H          1.04837        0.36387        3.79735
H          1.17734        0.92718        6.22745
H          2.51891        2.83805        7.01827
H          3.73577        4.30970        5.40523
H          4.63816        6.88145        2.95538
H          1.20998        5.52820        2.56995
H         -0.64763        6.06467        4.10239
H          2.14182        7.99534        6.80642
H          3.98656        7.45178        5.28040
