114

C          1.13371       -0.57030       -0.74739
C          1.20738       -1.08937        0.68034
C          1.52906       -0.00071        1.70747
C          0.50804        1.13864        1.80041
C         -0.92186        0.71127        2.14888
C         -1.07634       -0.02541        3.48408
C         -0.62922        0.76372        4.72003
C         -1.37578        2.08162        4.95756
C         -2.89090        1.94629        5.14852
C         -3.32063        1.07142        6.33189
C         -2.84970        1.56189        7.70622
C         -3.35748        2.95160        8.10827
C         -4.88288        3.09181        8.16764
C         -5.58137        2.16230        9.16811
C         -5.19313        2.37701       10.63748
C         -5.53884        3.76635       11.19910
C         -7.05787        4.04268       11.32453
C         -7.63698        3.25351       12.50002
C         -7.39875        3.61460       13.82806
C         -7.89033        2.82661       14.86405
N         -8.59896        1.70591       14.60025
C         -8.84686        1.33123       13.32692
C         -8.37978        2.09322       12.26060
C         -9.06785        0.86612       15.71470
C         -7.37296        5.55593       11.43478
C         -7.04737        6.39005       10.18159
C         -7.76269        5.96714        8.89222
C         -9.28025        6.17934        8.89685
C         -9.72722        7.64696        8.90106
C         -9.28303        8.47240        7.68569
C         -9.78139        7.96228        6.32754
C        -11.30546        7.93130        6.16092
C        -12.00307        9.29100        6.28660
C        -11.59140       10.33538        5.24196
C        -11.89742        9.96175        3.78651
C        -13.37614        9.70661        3.47164
C        -14.31922       10.88124        3.75487
C        -14.01918       12.16702        2.97646
C        -14.06669       12.03902        1.45158
C        -15.43025       11.62240        0.92153
H          0.29275        0.11616       -0.88231
H          0.99581       -1.40350       -1.44390
H          2.05531       -0.04789       -1.02294
H          0.26918       -1.59351        0.93598
H          1.99197       -1.85400        0.73159
H          1.64473       -0.47019        2.69137
H          2.50755        0.43348        1.46613
H          0.86338        1.86331        2.54255
H          0.48573        1.68393        0.84942
H         -1.56081        1.60222        2.14762
H         -1.31486        0.07090        1.35049
H         -2.12606       -0.32009        3.59910
H         -0.51316       -0.96532        3.44882
H         -0.73626        0.12006        5.60103
H          0.44315        0.97916        4.64726
H         -0.94034        2.57525        5.83426
H         -1.18978        2.76255        4.11879
H         -3.31920        2.94926        5.25999
H         -3.33867        1.53995        4.23411
H         -4.41387        0.99105        6.32684
H         -2.95572        0.04869        6.18257
H         -3.15688        0.82924        8.46160
H         -1.75400        1.56795        7.73745
H         -2.92755        3.21277        9.08224
H         -2.96580        3.69906        7.40841
H         -5.12731        4.13459        8.39769
H         -5.30482        2.91177        7.17209
H         -6.66418        2.27866        9.05046
H         -5.37460        1.11912        8.90300
H         -5.67384        1.60142       11.24416
H         -4.11573        2.21298       10.75489
H         -5.06326        3.86347       12.18395
H         -5.05502        4.51920       10.57232
H         -7.56753        3.68484       10.42581
H         -6.81268        4.49967       14.06961
H         -7.71010        3.07634       15.90563
H         -9.40753        0.41408       13.16821
H         -8.57837        1.76250       11.24239
H         -9.94665        0.29922       15.39715
H         -8.24939        0.19311       15.98307
H         -9.33592        1.50952       16.55655
H         -8.43359        5.69063       11.68171
H         -6.81286        5.98880       12.27355
H         -7.27411        7.44036       10.39827
H         -5.96774        6.36350        9.99817
H         -7.31745        6.51241        8.05261
H         -7.55851        4.91239        8.68206
H         -9.70501        5.67604        8.02056
H         -9.71969        5.67524        9.76514
H        -10.82037        7.67688        8.97845
H         -9.35653        8.13791        9.80821
H         -9.61283        9.50790        7.82911
H         -8.18838        8.52121        7.65813
H         -9.34205        8.58448        5.53910
H         -9.39081        6.95325        6.15114
H        -11.54085        7.48957        5.18561
H        -11.73779        7.24863        6.90177
H        -13.08651        9.13244        6.23625
H        -11.81748        9.70505        7.28439
H        -12.08701       11.28279        5.48419
H        -10.51792       10.53880        5.33093
H        -11.52142       10.76058        3.13633
H        -11.32445        9.06827        3.51189
H        -13.46284        9.41625        2.41800
H        -13.72396        8.83721        4.04191
H        -15.34632       10.56100        3.54345
H        -14.30242       11.11258        4.82642
H        -14.74116       12.93285        3.28730
H        -13.03357       12.54972        3.26596
H        -13.80854       13.01212        1.01634
H        -13.30575       11.33331        1.10152
H        -16.21278       12.30220        1.27338
H        -15.43102       11.64361       -0.17300
H        -15.68859       10.60599        1.23263
