 xtb: 6.7.1 (edcfbbe)
          12202407163D

 30 29  0     0  0            999 V2000
    2.0962   -0.2719   -0.8040 C   0  0  0  0  0  0  0  0  0  0  0  0
    1.0142   -0.1675   -1.7445 N   0  0  0  0  0  0  0  0  0  0  0  0
    0.0527   -1.1110   -1.9481 C   0  0  0  0  0  0  0  0  0  0  0  0
   -0.7836   -0.6365   -2.9111 C   0  0  0  0  0  0  0  0  0  0  0  0
   -0.3181    0.5903   -3.2789 N   0  0  0  0  0  0  0  0  0  0  0  0
    0.7722    0.8509   -2.5596 C   0  0  0  0  0  0  0  0  0  0  0  0
   -0.9132    1.4790   -4.2502 C   0  0  0  0  0  0  0  0  0  0  0  0
   -2.2971    1.9858   -3.8306 C   0  0  0  0  0  0  0  0  0  0  0  0
   -2.3584    2.6921   -2.4786 C   0  0  0  0  0  0  0  0  0  0  0  0
   -1.4865    3.9743   -2.3184 C   0  0  0  0  0  0  0  0  0  0  0  0
   -0.0692    5.2704   -5.6524 S   0  0  0  0  0  0  0  0  0  0  0  0
   -1.1470    4.0551   -5.8950 F   0  0  0  0  0  0  0  0  0  0  0  0
    0.7600    4.1356   -4.6326 F   0  0  0  0  0  0  0  0  0  0  0  0
    0.9589    4.8580   -6.8187 F   0  0  0  0  0  0  0  0  0  0  0  0
   -0.9277    6.2125   -6.7100 F   0  0  0  0  0  0  0  0  0  0  0  0
   -1.5143    4.7485   -3.4220 F   0  0  0  0  0  0  0  0  0  0  0  0
   -1.8757    4.7147   -1.3014 F   0  0  0  0  0  0  0  0  0  0  0  0
   -0.2106    3.6347   -2.1184 F   0  0  0  0  0  0  0  0  0  0  0  0
   -3.6317    3.0252   -2.2037 F   0  0  0  0  0  0  0  0  0  0  0  0
   -1.9607    1.8489   -1.4814 F   0  0  0  0  0  0  0  0  0  0  0  0
    1.7024   -0.4292    0.2007 H   0  0  0  0  0  0  0  0  0  0  0  0
    2.6859    0.6417   -0.8165 H   0  0  0  0  0  0  0  0  0  0  0  0
    2.7379   -1.1157   -1.0606 H   0  0  0  0  0  0  0  0  0  0  0  0
    0.0268   -2.0350   -1.4070 H   0  0  0  0  0  0  0  0  0  0  0  0
   -1.6511   -1.0856   -3.3494 H   0  0  0  0  0  0  0  0  0  0  0  0
    1.3565    1.7488   -2.6352 H   0  0  0  0  0  0  0  0  0  0  0  0
   -0.2252    2.3071   -4.4126 H   0  0  0  0  0  0  0  0  0  0  0  0
   -1.0326    0.9475   -5.1981 H   0  0  0  0  0  0  0  0  0  0  0  0
   -2.6583    2.6768   -4.5941 H   0  0  0  0  0  0  0  0  0  0  0  0
   -3.0081    1.1582   -3.7607 H   0  0  0  0  0  0  0  0  0  0  0  0
  1  2  1  0  0  0  0
  2  3  4  0  0  0  0
  3  4  2  0  0  0  0
  4  5  4  0  0  0  0
  2  6  4  0  0  0  0
  5  6  4  0  0  0  0
  5  7  1  0  0  0  0
  7  8  1  0  0  0  0
  8  9  1  0  0  0  0
  9 10  1  0  0  0  0
 11 12  1  0  0  0  0
 11 13  1  0  0  0  0
 11 14  1  0  0  0  0
 11 15  1  0  0  0  0
 10 16  1  0  0  0  0
 10 17  1  0  0  0  0
 10 18  1  0  0  0  0
  9 19  1  0  0  0  0
  9 20  1  0  0  0  0
  1 21  1  0  0  0  0
  1 22  1  0  0  0  0
  1 23  1  0  0  0  0
  3 24  1  0  0  0  0
  4 25  1  0  0  0  0
  6 26  1  0  0  0  0
  7 27  1  0  0  0  0
  7 28  1  0  0  0  0
  8 29  1  0  0  0  0
  8 30  1  0  0  0  0
M  CHG  1   1   1
M  END
