58

C          1.47081       -0.56136        0.23030
C          1.37414       -0.18484        1.70146
C          1.84031        1.24269        2.01719
C          1.20927        2.35625        1.17328
C         -0.31579        2.43720        1.27188
C         -0.82294        3.26762        2.45970
C         -0.95047        4.77325        2.17770
C         -1.91983        5.17233        1.05541
N         -3.33993        5.15938        1.46907
C         -4.15203        4.02360        1.50027
C         -3.92560        2.70735        1.10809
C         -4.93297        1.78055        1.40858
Cl        -4.63726        0.14014        0.95144
C         -6.12100        2.17169        2.06104
C         -6.35750        3.50920        2.40625
C         -5.35524        4.41877        2.08195
N         -5.30830        5.80598        2.15466
C         -4.06035        6.24090        1.85496
C         -3.60874        7.66816        1.93475
C         -6.45598        6.68617        2.45763
C         -7.20140        7.10899        1.18583
C         -8.06978        6.02506        0.52887
C         -9.26681        5.56128        1.35609
C        -10.36803        6.58364        1.37676
O        -11.28852        6.66701        0.58874
O        -10.21557        7.47611        2.37416
Cl        -7.36408        1.03792        2.45567
H          0.77122        0.01868       -0.37945
H          1.22143       -1.61890        0.09542
H          2.48290       -0.39934       -0.15290
H          0.34427       -0.33249        2.04468
H          1.98874       -0.88338        2.28209
H          1.65902        1.44165        3.08001
H          2.92776        1.28835        1.87710
H          1.65508        3.31694        1.45721
H          1.48542        2.20016        0.12349
H         -0.68651        2.84549        0.32852
H         -0.74696        1.43361        1.33792
H         -1.79558        2.88278        2.78034
H         -0.15836        3.12252        3.32027
H         -1.25467        5.27287        3.10606
H          0.04580        5.15724        1.92795
H         -1.66686        6.18154        0.72048
H         -1.81856        4.54997        0.16352
H         -3.01589        2.41325        0.60400
H         -7.27041        3.82013        2.89585
H         -4.28667        8.25809        1.31607
H         -3.66982        7.96194        2.98368
H         -2.58921        7.76827        1.57351
H         -7.11325        6.19295        3.17850
H         -6.06992        7.57894        2.96159
H         -7.82528        7.97972        1.41456
H         -6.46892        7.44520        0.44151
H         -8.43322        6.41683       -0.43001
H         -7.44751        5.15913        0.28100
H         -9.68663        4.64819        0.91660
H         -8.99970        5.30123        2.38394
H        -10.99890        8.06386        2.27793
