40

C          1.52299       -0.81170       -0.09244
C          0.49225       -0.56315       -1.14253
O         -0.47503       -1.28394       -1.32187
N          0.54376        0.55904       -2.01512
C          1.50249        1.52076       -2.12983
C          2.74572        1.63077       -1.57019
N          3.27213        2.85712       -1.94360
C          2.40983        3.47801       -2.78760
N          1.35630        2.62709       -2.94428
C          0.29610        2.81979       -3.94038
C          2.58938        4.80587       -3.49384
C          1.52456        5.71262       -3.54704
C          1.69103        6.94037       -4.18786
C          2.91373        7.25995       -4.77662
C          3.97393        6.35551       -4.72668
C          3.81564        5.12663       -4.08548
C          4.50436        3.42429       -1.39277
C          4.52104        4.74237       -0.94675
C          5.69721        5.25037       -0.39492
C          6.82842        4.43860       -0.28690
C          6.78906        3.11274       -0.72276
C          5.61725        2.59406       -1.27287
H          1.19290       -1.63908        0.54345
H          1.63578        0.06969        0.54279
H          2.47041       -1.09436       -0.55530
H         -0.27865        0.62453       -2.59801
H          3.32221        1.03348       -0.88945
H         -0.53247        3.35997       -3.47617
H          0.67540        3.36764       -4.80591
H         -0.05771        1.85128       -4.30390
H          0.57462        5.50165       -3.06372
H          0.87315        7.65822       -4.22364
H          3.04222        8.21957       -5.27524
H          4.92365        6.61267       -5.19301
H          4.65042        4.43011       -4.07890
H          3.64549        5.38079       -0.98685
H          5.73648        6.27922       -0.04010
H          7.74518        4.84151        0.14267
H          7.67897        2.49125       -0.63581
H          5.61237        1.57023       -1.62990
