18

Br         1.09484        0.08237       -0.04972
C          2.94737        0.04696       -0.05940
N          3.76261        1.10332       -0.06486
O          3.38323        2.44821       -0.06311
C          5.09386        0.70325       -0.07271
C          5.06942       -0.68930       -0.06998
N          3.72255       -1.04001       -0.06231
O          3.28630       -2.36768       -0.05858
C          6.17700       -1.66520       -0.07407
C          6.21890        1.65734       -0.08151
H          2.40654        2.45242       -0.05613
H          2.31031       -2.33101       -0.05371
H          6.78940       -1.51961       -0.96843
H          6.79875       -1.51625        0.81328
H          5.80293       -2.69154       -0.07010
H          6.15904        2.28729       -0.97325
H          6.17195        2.28874        0.80995
H          7.17515        1.12744       -0.08811
