 xtb: 6.7.1 (edcfbbe)
          12202407163D

 18 18  0     0  0            999 V2000
    1.0849    0.0757   -0.0484 Br  0  0  0  0  0  0  0  0  0  0  0  0
    2.9622    0.0447   -0.0592 C   0  0  0  0  0  0  0  0  0  0  0  0
    3.7769    1.1102   -0.0654 N   0  0  0  0  0  0  0  0  0  0  0  0
    3.4199    2.4123   -0.0654 O   0  0  0  0  0  0  0  0  0  0  0  0
    5.0790    0.6986   -0.0723 C   0  0  0  0  0  0  0  0  0  0  0  0
    5.0575   -0.6794   -0.0702 C   0  0  0  0  0  0  0  0  0  0  0  0
    3.7418   -1.0474   -0.0620 N   0  0  0  0  0  0  0  0  0  0  0  0
    3.3307   -2.3344   -0.0577 O   0  0  0  0  0  0  0  0  0  0  0  0
    6.1570   -1.6674   -0.0748 C   0  0  0  0  0  0  0  0  0  0  0  0
    6.1988    1.6597   -0.0804 C   0  0  0  0  0  0  0  0  0  0  0  0
    2.4504    2.5062   -0.0588 H   0  0  0  0  0  0  0  0  0  0  0  0
    2.3579   -2.3852   -0.0527 H   0  0  0  0  0  0  0  0  0  0  0  0
    6.7796   -1.5421   -0.9589 H   0  0  0  0  0  0  0  0  0  0  0  0
    6.7895   -1.5393    0.8017 H   0  0  0  0  0  0  0  0  0  0  0  0
    5.7487   -2.6738   -0.0710 H   0  0  0  0  0  0  0  0  0  0  0  0
    6.1385    2.3026   -0.9575 H   0  0  0  0  0  0  0  0  0  0  0  0
    6.1503    2.3036    0.7967 H   0  0  0  0  0  0  0  0  0  0  0  0
    7.1465    1.1323   -0.0864 H   0  0  0  0  0  0  0  0  0  0  0  0
  1  2  1  0  0  0  0
  2  3  4  0  0  0  0
  3  4  1  0  0  0  0
  3  5  1  0  0  0  0
  5  6  4  0  0  0  0
  2  7  4  0  0  0  0
  6  7  1  0  0  0  0
  7  8  1  0  0  0  0
  6  9  1  0  0  0  0
  5 10  1  0  0  0  0
  4 11  1  0  0  0  0
  8 12  1  0  0  0  0
  9 13  1  0  0  0  0
  9 14  1  0  0  0  0
  9 15  1  0  0  0  0
 10 16  1  0  0  0  0
 10 17  1  0  0  0  0
 10 18  1  0  0  0  0
M  CHG  1   1   1
M  END
