 xtb: 6.7.1 (edcfbbe)
          12202407173D

 86 85  0     0  0            999 V2000
    2.9104   -1.3325    0.0915 C   0  0  0  0  0  0  0  0  0  0  0  0
    2.1273   -2.5207   -0.4539 C   0  0  0  0  0  0  0  0  0  0  0  0
    1.7879   -3.5615    0.6145 C   0  0  0  0  0  0  0  0  0  0  0  0
    0.9032   -3.0510    1.7541 C   0  0  0  0  0  0  0  0  0  0  0  0
   -0.4475   -2.4773    1.3199 C   0  0  0  0  0  0  0  0  0  0  0  0
   -1.3355   -3.4399    0.5281 C   0  0  0  0  0  0  0  0  0  0  0  0
   -1.7458   -4.7055    1.2833 C   0  0  0  0  0  0  0  0  0  0  0  0
   -2.6582   -4.4492    2.4934 C   0  0  0  0  0  0  0  0  0  0  0  0
   -4.4380   -4.6975    2.1501 P   0  0  0  0  0  0  0  0  0  0  0  0
   -4.6651   -6.3844    1.4682 C   0  0  0  0  0  0  0  0  0  0  0  0
   -3.8130   -7.4934    2.0889 C   0  0  0  0  0  0  0  0  0  0  0  0
   -4.1435   -7.8138    3.5462 C   0  0  0  0  0  0  0  0  0  0  0  0
   -5.5404   -8.3961    3.7777 C   0  0  0  0  0  0  0  0  0  0  0  0
   -5.8304   -9.6944    3.0199 C   0  0  0  0  0  0  0  0  0  0  0  0
   -4.8577  -10.8413    3.3022 C   0  0  0  0  0  0  0  0  0  0  0  0
   -4.7829  -11.2754    4.7670 C   0  0  0  0  0  0  0  0  0  0  0  0
   -6.1048  -11.8128    5.3019 C   0  0  0  0  0  0  0  0  0  0  0  0
   -5.4838   -4.5243    3.6551 C   0  0  0  0  0  0  0  0  0  0  0  0
   -4.7951   -3.9481    4.8940 C   0  0  0  0  0  0  0  0  0  0  0  0
   -4.5736   -2.4375    4.8141 C   0  0  0  0  0  0  0  0  0  0  0  0
   -5.8325   -1.6079    5.0792 C   0  0  0  0  0  0  0  0  0  0  0  0
   -6.3366   -1.6513    6.5239 C   0  0  0  0  0  0  0  0  0  0  0  0
   -5.3464   -1.1479    7.5766 C   0  0  0  0  0  0  0  0  0  0  0  0
   -4.8507    0.2839    7.3669 C   0  0  0  0  0  0  0  0  0  0  0  0
   -5.9691    1.3184    7.4006 C   0  0  0  0  0  0  0  0  0  0  0  0
   -5.1318   -3.6493    0.8113 C   0  0  0  0  0  0  0  0  0  0  0  0
   -5.4830   -2.1942    1.1332 C   0  0  0  0  0  0  0  0  0  0  0  0
   -4.2979   -1.2421    1.0547 C   0  0  0  0  0  0  0  0  0  0  0  0
    2.3102   -0.7446    0.7815 H   0  0  0  0  0  0  0  0  0  0  0  0
    3.2192   -0.6823   -0.7231 H   0  0  0  0  0  0  0  0  0  0  0  0
    3.8022   -1.6723    0.6128 H   0  0  0  0  0  0  0  0  0  0  0  0
    1.2145   -2.1653   -0.9363 H   0  0  0  0  0  0  0  0  0  0  0  0
    2.7270   -3.0132   -1.2223 H   0  0  0  0  0  0  0  0  0  0  0  0
    1.3100   -4.4177    0.1323 H   0  0  0  0  0  0  0  0  0  0  0  0
    2.7207   -3.9218    1.0538 H   0  0  0  0  0  0  0  0  0  0  0  0
    0.7456   -3.8690    2.4617 H   0  0  0  0  0  0  0  0  0  0  0  0
    1.4391   -2.2693    2.2936 H   0  0  0  0  0  0  0  0  0  0  0  0
   -0.9716   -2.1298    2.2147 H   0  0  0  0  0  0  0  0  0  0  0  0
   -0.2752   -1.5979    0.6985 H   0  0  0  0  0  0  0  0  0  0  0  0
   -2.2280   -2.9032    0.2041 H   0  0  0  0  0  0  0  0  0  0  0  0
   -0.8000   -3.7471   -0.3705 H   0  0  0  0  0  0  0  0  0  0  0  0
   -2.2337   -5.3837    0.5789 H   0  0  0  0  0  0  0  0  0  0  0  0
   -0.8419   -5.2049    1.6328 H   0  0  0  0  0  0  0  0  0  0  0  0
   -2.4246   -5.1503    3.3001 H   0  0  0  0  0  0  0  0  0  0  0  0
   -2.5044   -3.4441    2.8863 H   0  0  0  0  0  0  0  0  0  0  0  0
   -5.7283   -6.6219    1.5643 H   0  0  0  0  0  0  0  0  0  0  0  0
   -4.4460   -6.3164    0.3975 H   0  0  0  0  0  0  0  0  0  0  0  0
   -3.9534   -8.3933    1.4889 H   0  0  0  0  0  0  0  0  0  0  0  0
   -2.7570   -7.2273    2.0180 H   0  0  0  0  0  0  0  0  0  0  0  0
   -3.4071   -8.5333    3.9054 H   0  0  0  0  0  0  0  0  0  0  0  0
   -4.0280   -6.9093    4.1522 H   0  0  0  0  0  0  0  0  0  0  0  0
   -5.6539   -8.5774    4.8473 H   0  0  0  0  0  0  0  0  0  0  0  0
   -6.3068   -7.6668    3.4982 H   0  0  0  0  0  0  0  0  0  0  0  0
   -6.8397  -10.0148    3.2812 H   0  0  0  0  0  0  0  0  0  0  0  0
   -5.8316   -9.4997    1.9446 H   0  0  0  0  0  0  0  0  0  0  0  0
   -5.1733  -11.6989    2.7041 H   0  0  0  0  0  0  0  0  0  0  0  0
   -3.8561  -10.5661    2.9640 H   0  0  0  0  0  0  0  0  0  0  0  0
   -4.0279  -12.0605    4.8451 H   0  0  0  0  0  0  0  0  0  0  0  0
   -4.4481  -10.4434    5.3900 H   0  0  0  0  0  0  0  0  0  0  0  0
   -6.4742  -12.6134    4.6653 H   0  0  0  0  0  0  0  0  0  0  0  0
   -5.9693  -12.2102    6.3045 H   0  0  0  0  0  0  0  0  0  0  0  0
   -6.8609  -11.0329    5.3491 H   0  0  0  0  0  0  0  0  0  0  0  0
   -6.3413   -3.9044    3.3811 H   0  0  0  0  0  0  0  0  0  0  0  0
   -5.8651   -5.5235    3.8768 H   0  0  0  0  0  0  0  0  0  0  0  0
   -5.4202   -4.1691    5.7599 H   0  0  0  0  0  0  0  0  0  0  0  0
   -3.8406   -4.4530    5.0560 H   0  0  0  0  0  0  0  0  0  0  0  0
   -3.8106   -2.1528    5.5381 H   0  0  0  0  0  0  0  0  0  0  0  0
   -4.1924   -2.1869    3.8203 H   0  0  0  0  0  0  0  0  0  0  0  0
   -5.6197   -0.5723    4.8117 H   0  0  0  0  0  0  0  0  0  0  0  0
   -6.6450   -1.9452    4.4293 H   0  0  0  0  0  0  0  0  0  0  0  0
   -7.2446   -1.0495    6.5773 H   0  0  0  0  0  0  0  0  0  0  0  0
   -6.6211   -2.6736    6.7846 H   0  0  0  0  0  0  0  0  0  0  0  0
   -5.8414   -1.2028    8.5484 H   0  0  0  0  0  0  0  0  0  0  0  0
   -4.4841   -1.8173    7.6205 H   0  0  0  0  0  0  0  0  0  0  0  0
   -4.1388    0.5112    8.1633 H   0  0  0  0  0  0  0  0  0  0  0  0
   -4.3102    0.3603    6.4210 H   0  0  0  0  0  0  0  0  0  0  0  0
   -6.5408    1.2290    8.3211 H   0  0  0  0  0  0  0  0  0  0  0  0
   -5.5531    2.3217    7.3542 H   0  0  0  0  0  0  0  0  0  0  0  0
   -6.6479    1.1966    6.5601 H   0  0  0  0  0  0  0  0  0  0  0  0
   -4.4393   -3.6947   -0.0337 H   0  0  0  0  0  0  0  0  0  0  0  0
   -6.0441   -4.1820    0.5165 H   0  0  0  0  0  0  0  0  0  0  0  0
   -6.2318   -1.8690    0.4083 H   0  0  0  0  0  0  0  0  0  0  0  0
   -5.9419   -2.1232    2.1204 H   0  0  0  0  0  0  0  0  0  0  0  0
   -3.8819   -1.2269    0.0502 H   0  0  0  0  0  0  0  0  0  0  0  0
   -4.6216   -0.2332    1.2958 H   0  0  0  0  0  0  0  0  0  0  0  0
   -3.5117   -1.5198    1.7523 H   0  0  0  0  0  0  0  0  0  0  0  0
  1  2  1  0  0  0  0
  2  3  1  0  0  0  0
  3  4  1  0  0  0  0
  4  5  1  0  0  0  0
  5  6  1  0  0  0  0
  6  7  1  0  0  0  0
  7  8  1  0  0  0  0
  8  9  1  0  0  0  0
  9 10  1  0  0  0  0
 10 11  1  0  0  0  0
 11 12  1  0  0  0  0
 12 13  1  0  0  0  0
 13 14  1  0  0  0  0
 14 15  1  0  0  0  0
 15 16  1  0  0  0  0
 16 17  1  0  0  0  0
  9 18  1  0  0  0  0
 18 19  1  0  0  0  0
 19 20  1  0  0  0  0
 20 21  1  0  0  0  0
 21 22  1  0  0  0  0
 22 23  1  0  0  0  0
 23 24  1  0  0  0  0
 24 25  1  0  0  0  0
  9 26  1  0  0  0  0
 26 27  1  0  0  0  0
 27 28  1  0  0  0  0
  1 29  1  0  0  0  0
  1 30  1  0  0  0  0
  1 31  1  0  0  0  0
  2 32  1  0  0  0  0
  2 33  1  0  0  0  0
  3 34  1  0  0  0  0
  3 35  1  0  0  0  0
  4 36  1  0  0  0  0
  4 37  1  0  0  0  0
  5 38  1  0  0  0  0
  5 39  1  0  0  0  0
  6 40  1  0  0  0  0
  6 41  1  0  0  0  0
  7 42  1  0  0  0  0
  7 43  1  0  0  0  0
  8 44  1  0  0  0  0
  8 45  1  0  0  0  0
 10 46  1  0  0  0  0
 10 47  1  0  0  0  0
 11 48  1  0  0  0  0
 11 49  1  0  0  0  0
 12 50  1  0  0  0  0
 12 51  1  0  0  0  0
 13 52  1  0  0  0  0
 13 53  1  0  0  0  0
 14 54  1  0  0  0  0
 14 55  1  0  0  0  0
 15 56  1  0  0  0  0
 15 57  1  0  0  0  0
 16 58  1  0  0  0  0
 16 59  1  0  0  0  0
 17 60  1  0  0  0  0
 17 61  1  0  0  0  0
 17 62  1  0  0  0  0
 18 63  1  0  0  0  0
 18 64  1  0  0  0  0
 19 65  1  0  0  0  0
 19 66  1  0  0  0  0
 20 67  1  0  0  0  0
 20 68  1  0  0  0  0
 21 69  1  0  0  0  0
 21 70  1  0  0  0  0
 22 71  1  0  0  0  0
 22 72  1  0  0  0  0
 23 73  1  0  0  0  0
 23 74  1  0  0  0  0
 24 75  1  0  0  0  0
 24 76  1  0  0  0  0
 25 77  1  0  0  0  0
 25 78  1  0  0  0  0
 25 79  1  0  0  0  0
 26 80  1  0  0  0  0
 26 81  1  0  0  0  0
 27 82  1  0  0  0  0
 27 83  1  0  0  0  0
 28 84  1  0  0  0  0
 28 85  1  0  0  0  0
 28 86  1  0  0  0  0
M  CHG  1   1   1
M  END
