38

C          1.45588        0.60133       -0.40471
C          0.82076        0.43250       -1.77664
C          1.03606       -0.95549       -2.38646
C          0.35512       -2.10935       -1.64796
N         -1.11657       -2.17297       -1.89843
C         -1.72358       -3.22279       -2.64569
N         -0.95656       -4.18098       -3.33648
C          0.17014       -3.78209       -4.20113
C         -1.52927       -5.51413       -3.59958
C         -2.96027       -5.41543       -4.05641
C         -3.73501       -4.67508       -2.99803
N         -3.12750       -3.36882       -2.67601
C         -4.01236       -2.19294       -2.79525
C         -1.92531       -1.41983       -0.90838
H          0.97258       -0.02909        0.34641
H          1.36114        1.64042       -0.07323
H          2.52130        0.35173       -0.43186
H         -0.24645        0.66847       -1.72270
H          1.26641        1.17375       -2.45149
H          0.68454       -0.91815       -3.42188
H          2.11399       -1.15500       -2.42441
H          0.81138       -3.06386       -1.90976
H          0.52548       -2.03650       -0.56818
H          1.11631       -4.06984       -3.73858
H          0.08870       -4.28623       -5.16991
H          0.12722       -2.71306       -4.40738
H         -1.43680       -6.09874       -2.67702
H         -0.93620       -6.03170       -4.36194
H         -3.38512       -6.41062       -4.22167
H         -3.00910       -4.86502       -5.00319
H         -3.78293       -5.24756       -2.06454
H         -4.76704       -4.53480       -3.33799
H         -4.78657       -2.38444       -3.54522
H         -4.49388       -1.99683       -1.83478
H         -3.44721       -1.32591       -3.14640
H         -1.30016       -1.07626       -0.07865
H         -2.36045       -0.54023       -1.38679
H         -2.68738       -2.06832       -0.46954
