86

C          1.79011       -0.01354       -0.74385
C          1.39104       -1.28785       -1.47253
C          1.92754       -2.56919       -0.82506
C          1.57232       -2.77928        0.65320
C          0.07873       -2.71153        0.98465
C         -0.73789       -3.90461        0.47340
C         -0.86319       -5.05852        1.47328
C         -1.72906       -4.78188        2.70666
P         -3.49165       -4.91620        2.58283
C         -3.90147       -6.51403        1.85708
C         -3.29203       -7.81060        2.38336
C         -3.76149       -8.31883        3.75055
C         -5.27524       -8.30919        3.99418
C         -6.07453       -9.30956        3.15634
C         -5.87898      -10.78041        3.53850
C         -6.19618      -11.13738        4.99471
C         -7.61095      -10.77615        5.42279
C         -4.25553       -4.85593        4.18830
C         -3.74944       -3.92602        5.29208
C         -4.25809       -2.48468        5.30179
C         -5.78242       -2.32305        5.32699
C         -6.40403       -2.37640        6.72504
C         -6.13824       -1.14543        7.60142
C         -6.49140        0.20932        6.97739
C         -7.93593        0.31646        6.51189
C         -4.26832       -3.79064        1.44526
C         -4.46010       -2.31993        1.75831
C         -3.17887       -1.51638        1.84675
H          1.33412        0.04239        0.24901
H          1.45515        0.86255       -1.30878
H          2.87655        0.05131       -0.63000
H          0.29950       -1.33390       -1.55668
H          1.77313       -1.23538       -2.49937
H          1.57692       -3.42569       -1.41234
H          3.02152       -2.57231       -0.91387
H          1.97747       -3.74425        0.98049
H          2.09140       -2.01750        1.24781
H         -0.02547       -2.61305        2.06971
H         -0.34111       -1.79172        0.56596
H         -1.73396       -3.55651        0.19839
H         -0.29834       -4.29220       -0.45222
H         -1.26077       -5.93044        0.94387
H          0.14470       -5.33390        1.80814
H         -1.43540       -5.52264        3.46183
H         -1.46584       -3.81745        3.14593
H         -4.99263       -6.60248        1.82532
H         -3.59889       -6.43660        0.80440
H         -3.50454       -8.59653        1.64690
H         -2.20097       -7.71384        2.41027
H         -3.37559       -9.33566        3.89220
H         -3.27126       -7.72606        4.52985
H         -5.45661       -8.48675        5.05979
H         -5.67959       -7.31064        3.80262
H         -7.13909       -9.06026        3.24437
H         -5.82972       -9.18447        2.09516
H         -6.51605      -11.38903        2.88414
H         -4.84744      -11.08068        3.32138
H         -6.05995      -12.21818        5.12144
H         -5.47782      -10.65848        5.66901
H         -8.35164      -11.22853        4.75608
H         -7.80112      -11.14043        6.43764
H         -7.76578       -9.69306        5.42871
H         -5.33740       -4.78268        4.06014
H         -4.09908       -5.84645        4.61234
H         -4.02501       -4.37266        6.25665
H         -2.65407       -3.90823        5.27262
H         -3.81542       -1.96736        6.16105
H         -3.85504       -1.96798        4.43175
H         -6.03855       -1.37350        4.84618
H         -6.26717       -3.08424        4.71024
H         -7.48877       -2.49821        6.61600
H         -6.05437       -3.27167        7.25327
H         -6.70730       -1.26109        8.53274
H         -5.08215       -1.12705        7.89415
H         -6.30598        0.99221        7.72255
H         -5.82051        0.42576        6.13847
H         -8.62933        0.12020        7.33533
H         -8.13426        1.32449        6.13344
H         -8.15415       -0.38599        5.70200
H         -3.78807       -3.88605        0.46674
H         -5.27933       -4.19121        1.29196
H         -5.07934       -1.87548        0.96948
H         -5.03876       -2.21598        2.67606
H         -2.67618       -1.48352        0.87660
H         -3.40182       -0.48422        2.13586
H         -2.48955       -1.92472        2.58694
