27

C          1.05269       -0.51832        0.67722
O          0.25791        0.63091        0.99397
C          0.91027        1.61952        1.65888
O          2.07562        1.58518        2.03166
C         -0.01183        2.82337        1.84911
N          0.68206        4.21986        1.73585
C          1.45266        4.30424        0.42078
C          1.63400        4.47651        2.92861
C          0.99802        5.62165        3.69865
C          0.27369        6.41737        2.63611
C         -0.37406        5.33508        1.79890
H          0.57246       -1.03808       -0.15657
H          1.08508       -1.18783        1.54060
H          2.06439       -0.23942        0.36512
H         -0.78812        2.81774        1.07592
H         -0.47614        2.77001        2.83971
H          2.29003        3.60294        0.45029
H          0.76689        4.05209       -0.39335
H          1.82589        5.32554        0.30253
H          2.61275        4.76295        2.52901
H          1.72759        3.57508        3.53920
H          0.28381        5.22998        4.43302
H          1.73996        6.21859        4.23665
H         -0.46189        7.10745        3.05874
H          0.98401        6.99875        2.03690
H         -1.26134        4.93230        2.30035
H         -0.63516        5.65467        0.78547
