 xtb: 6.7.1 (edcfbbe)
          12202407183D

 19 21  0     0  0            999 V2000
    3.5692   -2.1143   -0.2054 N   0  0  0  0  0  0  0  0  0  0  0  0
    3.4762   -1.0185   -0.0186 N   0  0  0  0  0  0  0  0  0  0  0  0
    3.1466    0.1165    0.1793 N   0  0  0  0  0  0  0  0  0  0  0  0
    4.0262    1.2336    0.3825 C   0  0  0  0  0  0  0  0  0  0  0  0
    3.3807    2.4958   -0.1797 C   0  0  0  0  0  0  0  0  0  0  0  0
    2.0879    2.8038    0.5077 N   0  0  0  0  0  0  0  0  0  0  0  0
    0.9276    1.9724    0.0500 C   0  0  0  0  0  0  0  0  0  0  0  0
    0.0232    2.7037   -0.4011 N   0  0  0  0  0  0  0  0  0  0  0  0
    0.4877    4.0454   -0.2647 C   0  0  0  0  0  0  0  0  0  0  0  0
    1.6688    4.1203    0.2648 N   0  0  0  0  0  0  0  0  0  0  0  0
   -0.2281    5.0844   -0.6414 N   0  0  0  0  0  0  0  0  0  0  0  0
   -1.3258    5.1722   -1.1261 N   0  0  0  0  0  0  0  0  0  0  0  0
   -2.3014    5.4620   -1.5692 N   0  0  0  0  0  0  0  0  0  0  0  0
    4.2274    1.3593    1.4563 H   0  0  0  0  0  0  0  0  0  0  0  0
    4.9871    1.0922   -0.1265 H   0  0  0  0  0  0  0  0  0  0  0  0
    4.0323    3.3597   -0.0304 H   0  0  0  0  0  0  0  0  0  0  0  0
    3.1694    2.3889   -1.2465 H   0  0  0  0  0  0  0  0  0  0  0  0
    2.2452    2.6734    1.5208 H   0  0  0  0  0  0  0  0  0  0  0  0
    0.9699    0.9009    0.1054 H   0  0  0  0  0  0  0  0  0  0  0  0
  1  2  2  0  0  0  0
  1  3  1  0  0  0  0
  2  3  2  0  0  0  0
  3  4  1  0  0  0  0
  4  5  1  0  0  0  0
  5  6  1  0  0  0  0
  6  7  1  0  0  0  0
  7  8  2  0  0  0  0
  8  9  1  0  0  0  0
  6 10  1  0  0  0  0
  9 10  2  0  0  0  0
  9 11  4  0  0  0  0
 11 12  4  0  0  0  0
 11 13  1  0  0  0  0
 12 13  3  0  0  0  0
  4 14  1  0  0  0  0
  4 15  1  0  0  0  0
  5 16  1  0  0  0  0
  5 17  1  0  0  0  0
  6 18  1  0  0  0  0
  7 19  1  0  0  0  0
M  CHG  1   1   1
M  END
