 xtb: 6.7.1 (edcfbbe)
          12202407183D

 27 27  0     0  0            999 V2000
    0.9966    0.1233    0.0056 C   0  0  0  0  0  0  0  0  0  0  0  0
    0.4814    1.5018    0.2126 C   0  0  0  0  0  0  0  0  0  0  0  0
    1.3057    2.5929   -0.0376 C   0  0  0  0  0  0  0  0  0  0  0  0
    0.8642    3.8911    0.1175 C   0  0  0  0  0  0  0  0  0  0  0  0
    1.7726    5.0365   -0.1630 C   0  0  0  0  0  0  0  0  0  0  0  0
   -0.4009    4.1060    0.5432 N   0  0  0  0  0  0  0  0  0  0  0  0
   -1.2176    3.0757    0.8787 C   0  0  0  0  0  0  0  0  0  0  0  0
   -0.8186    1.7561    0.6797 C   0  0  0  0  0  0  0  0  0  0  0  0
   -1.7604    0.6305    0.9710 C   0  0  0  0  0  0  0  0  0  0  0  0
   -2.5426    3.3941    1.4846 C   0  0  0  0  0  0  0  0  0  0  0  0
   -0.8939    5.4666    0.6448 C   0  0  0  0  0  0  0  0  0  0  0  0
    0.4384   -0.3786   -0.7844 H   0  0  0  0  0  0  0  0  0  0  0  0
    0.8895   -0.4680    0.9134 H   0  0  0  0  0  0  0  0  0  0  0  0
    2.0449    0.1411   -0.2772 H   0  0  0  0  0  0  0  0  0  0  0  0
    2.3174    2.4275   -0.3717 H   0  0  0  0  0  0  0  0  0  0  0  0
    1.4616    5.5829   -1.0541 H   0  0  0  0  0  0  0  0  0  0  0  0
    1.8047    5.7332    0.6729 H   0  0  0  0  0  0  0  0  0  0  0  0
    2.7793    4.6697   -0.3403 H   0  0  0  0  0  0  0  0  0  0  0  0
   -1.8233    0.4530    2.0446 H   0  0  0  0  0  0  0  0  0  0  0  0
   -2.7586    0.8503    0.6015 H   0  0  0  0  0  0  0  0  0  0  0  0
   -1.4248   -0.2877    0.5029 H   0  0  0  0  0  0  0  0  0  0  0  0
   -2.4671    4.2189    2.1888 H   0  0  0  0  0  0  0  0  0  0  0  0
   -3.2723    3.6618    0.7190 H   0  0  0  0  0  0  0  0  0  0  0  0
   -2.9301    2.5355    2.0217 H   0  0  0  0  0  0  0  0  0  0  0  0
   -0.7406    5.8584    1.6525 H   0  0  0  0  0  0  0  0  0  0  0  0
   -0.3721    6.1084   -0.0590 H   0  0  0  0  0  0  0  0  0  0  0  0
   -1.9541    5.5041    0.4079 H   0  0  0  0  0  0  0  0  0  0  0  0
  1  2  1  0  0  0  0
  2  3  4  0  0  0  0
  3  4  4  0  0  0  0
  4  5  1  0  0  0  0
  4  6  4  0  0  0  0
  6  7  4  0  0  0  0
  2  8  4  0  0  0  0
  7  8  4  0  0  0  0
  8  9  1  0  0  0  0
  7 10  1  0  0  0  0
  6 11  1  0  0  0  0
  1 12  1  0  0  0  0
  1 13  1  0  0  0  0
  1 14  1  0  0  0  0
  3 15  1  0  0  0  0
  5 16  1  0  0  0  0
  5 17  1  0  0  0  0
  5 18  1  0  0  0  0
  9 19  1  0  0  0  0
  9 20  1  0  0  0  0
  9 21  1  0  0  0  0
 10 22  1  0  0  0  0
 10 23  1  0  0  0  0
 10 24  1  0  0  0  0
 11 25  1  0  0  0  0
 11 26  1  0  0  0  0
 11 27  1  0  0  0  0
M  CHG  1   1   1
M  END
