27

C          1.01339        0.11162       -0.00796
C          0.47786        1.50297        0.21220
C          1.30594        2.58804       -0.05583
C          0.86143        3.89992        0.12971
C          1.80749        5.03164       -0.17685
N         -0.41248        4.13127        0.56266
C         -1.24249        3.09097        0.90104
C         -0.82162        1.75175        0.67731
C         -1.75848        0.60304        0.98163
C         -2.60592        3.38242        1.48168
C         -0.89001        5.53365        0.67468
H          0.46612       -0.38217       -0.81701
H          0.93156       -0.47839        0.91065
H          2.07242        0.12674       -0.28770
H          2.32008        2.41251       -0.41627
H          1.53283        5.50310       -1.12516
H          1.79271        5.77625        0.62465
H          2.84015        4.67695       -0.26275
H         -1.84706        0.46991        2.06448
H         -2.74756        0.79270        0.55107
H         -1.42445       -0.34531        0.55322
H         -2.55758        4.21528        2.18998
H         -3.30804        3.62324        0.67789
H         -3.00863        2.54218        2.05320
H         -0.59314        5.90355        1.65906
H         -0.45346        6.13808       -0.12294
H         -1.97170        5.58336        0.54298
