 xtb: 6.7.1 (edcfbbe)
          12202407183D

113112  0     0  0            999 V2000
    1.7599    0.1522   -0.4987 C   0  0  0  0  0  0  0  0  0  0  0  0
    1.7553   -0.0267   -2.0122 C   0  0  0  0  0  0  0  0  0  0  0  0
    2.3474   -1.3627   -2.4644 C   0  0  0  0  0  0  0  0  0  0  0  0
    1.6098   -2.6033   -1.9550 C   0  0  0  0  0  0  0  0  0  0  0  0
    0.1208   -2.6566   -2.3006 C   0  0  0  0  0  0  0  0  0  0  0  0
   -0.1889   -2.6209   -3.7977 C   0  0  0  0  0  0  0  0  0  0  0  0
    0.3214   -3.8250   -4.5914 C   0  0  0  0  0  0  0  0  0  0  0  0
   -0.2284   -5.1839   -4.1444 C   0  0  0  0  0  0  0  0  0  0  0  0
   -1.7499   -5.2463   -3.9875 C   0  0  0  0  0  0  0  0  0  0  0  0
   -2.5157   -4.9596   -5.2862 C   0  0  0  0  0  0  0  0  0  0  0  0
   -2.9830   -6.2216   -6.0099 C   0  0  0  0  0  0  0  0  0  0  0  0
   -4.1576   -6.9345   -5.3250 C   0  0  0  0  0  0  0  0  0  0  0  0
   -5.8223   -6.3294   -5.7976 P   0  0  0  0  0  0  0  0  0  0  0  0
   -5.9438   -6.3534   -7.6274 C   0  0  0  0  0  0  0  0  0  0  0  0
   -5.3048   -7.5378   -8.3579 C   0  0  0  0  0  0  0  0  0  0  0  0
   -5.9598   -8.8944   -8.1013 C   0  0  0  0  0  0  0  0  0  0  0  0
   -7.3961   -9.0276   -8.6138 C   0  0  0  0  0  0  0  0  0  0  0  0
   -7.5680   -8.7879  -10.1163 C   0  0  0  0  0  0  0  0  0  0  0  0
   -6.7046   -9.6716  -11.0192 C   0  0  0  0  0  0  0  0  0  0  0  0
   -6.9183  -11.1761  -10.8443 C   0  0  0  0  0  0  0  0  0  0  0  0
   -8.3351  -11.6252  -11.1808 C   0  0  0  0  0  0  0  0  0  0  0  0
   -7.1581   -7.3976   -5.1164 C   0  0  0  0  0  0  0  0  0  0  0  0
   -6.7621   -8.3817   -4.0136 C   0  0  0  0  0  0  0  0  0  0  0  0
   -6.5575   -7.7216   -2.6502 C   0  0  0  0  0  0  0  0  0  0  0  0
   -7.8578   -7.3138   -1.9520 C   0  0  0  0  0  0  0  0  0  0  0  0
   -8.7397   -8.4801   -1.4992 C   0  0  0  0  0  0  0  0  0  0  0  0
   -8.0936   -9.4344   -0.4925 C   0  0  0  0  0  0  0  0  0  0  0  0
   -7.6154   -8.7782    0.8038 C   0  0  0  0  0  0  0  0  0  0  0  0
   -8.7406   -8.1219    1.5953 C   0  0  0  0  0  0  0  0  0  0  0  0
   -6.2314   -4.5779   -5.4141 C   0  0  0  0  0  0  0  0  0  0  0  0
   -6.5646   -4.2147   -3.9652 C   0  0  0  0  0  0  0  0  0  0  0  0
   -5.3418   -4.0470   -3.0612 C   0  0  0  0  0  0  0  0  0  0  0  0
   -4.6406   -2.6966   -3.2419 C   0  0  0  0  0  0  0  0  0  0  0  0
   -5.2885   -1.5595   -2.4489 C   0  0  0  0  0  0  0  0  0  0  0  0
   -5.0755   -1.6367   -0.9350 C   0  0  0  0  0  0  0  0  0  0  0  0
   -3.6166   -1.5738   -0.4766 C   0  0  0  0  0  0  0  0  0  0  0  0
   -2.9030   -0.2941   -0.8962 C   0  0  0  0  0  0  0  0  0  0  0  0
    1.1034   -0.5669   -0.0147 H   0  0  0  0  0  0  0  0  0  0  0  0
    1.4190    1.1513   -0.2367 H   0  0  0  0  0  0  0  0  0  0  0  0
    2.7646    0.0198   -0.1039 H   0  0  0  0  0  0  0  0  0  0  0  0
    0.7354    0.0764   -2.3881 H   0  0  0  0  0  0  0  0  0  0  0  0
    2.3471    0.7739   -2.4621 H   0  0  0  0  0  0  0  0  0  0  0  0
    2.3772   -1.3801   -3.5561 H   0  0  0  0  0  0  0  0  0  0  0  0
    3.3810   -1.4205   -2.1149 H   0  0  0  0  0  0  0  0  0  0  0  0
    2.1083   -3.4869   -2.3596 H   0  0  0  0  0  0  0  0  0  0  0  0
    1.7067   -2.6537   -0.8689 H   0  0  0  0  0  0  0  0  0  0  0  0
   -0.2984   -3.5648   -1.8609 H   0  0  0  0  0  0  0  0  0  0  0  0
   -0.3831   -1.8117   -1.8288 H   0  0  0  0  0  0  0  0  0  0  0  0
   -1.2703   -2.5338   -3.9313 H   0  0  0  0  0  0  0  0  0  0  0  0
    0.2524   -1.7214   -4.2291 H   0  0  0  0  0  0  0  0  0  0  0  0
    0.0831   -3.6599   -5.6455 H   0  0  0  0  0  0  0  0  0  0  0  0
    1.4090   -3.8660   -4.5229 H   0  0  0  0  0  0  0  0  0  0  0  0
    0.0913   -5.9375   -4.8685 H   0  0  0  0  0  0  0  0  0  0  0  0
    0.2183   -5.4492   -3.1850 H   0  0  0  0  0  0  0  0  0  0  0  0
   -2.0088   -6.2401   -3.6131 H   0  0  0  0  0  0  0  0  0  0  0  0
   -2.0481   -4.5320   -3.2208 H   0  0  0  0  0  0  0  0  0  0  0  0
   -3.3759   -4.3259   -5.0782 H   0  0  0  0  0  0  0  0  0  0  0  0
   -1.8680   -4.4040   -5.9630 H   0  0  0  0  0  0  0  0  0  0  0  0
   -3.2488   -5.9617   -7.0362 H   0  0  0  0  0  0  0  0  0  0  0  0
   -2.1462   -6.9211   -6.0587 H   0  0  0  0  0  0  0  0  0  0  0  0
   -4.1644   -7.9919   -5.6095 H   0  0  0  0  0  0  0  0  0  0  0  0
   -4.0557   -6.8884   -4.2395 H   0  0  0  0  0  0  0  0  0  0  0  0
   -7.0083   -6.2884   -7.8703 H   0  0  0  0  0  0  0  0  0  0  0  0
   -5.4770   -5.4253   -7.9743 H   0  0  0  0  0  0  0  0  0  0  0  0
   -5.3486   -7.3232   -9.4266 H   0  0  0  0  0  0  0  0  0  0  0  0
   -4.2489   -7.6096   -8.0928 H   0  0  0  0  0  0  0  0  0  0  0  0
   -5.3492   -9.6535   -8.5912 H   0  0  0  0  0  0  0  0  0  0  0  0
   -5.9384   -9.1136   -7.0292 H   0  0  0  0  0  0  0  0  0  0  0  0
   -7.7438  -10.0333   -8.3738 H   0  0  0  0  0  0  0  0  0  0  0  0
   -8.0545   -8.3308   -8.0862 H   0  0  0  0  0  0  0  0  0  0  0  0
   -8.6182   -8.9513  -10.3616 H   0  0  0  0  0  0  0  0  0  0  0  0
   -7.3505   -7.7423  -10.3483 H   0  0  0  0  0  0  0  0  0  0  0  0
   -6.9315   -9.4090  -12.0548 H   0  0  0  0  0  0  0  0  0  0  0  0
   -5.6486   -9.4447  -10.8554 H   0  0  0  0  0  0  0  0  0  0  0  0
   -6.2205  -11.6919  -11.5073 H   0  0  0  0  0  0  0  0  0  0  0  0
   -6.6736  -11.4754   -9.8231 H   0  0  0  0  0  0  0  0  0  0  0  0
   -8.6092  -11.2987  -12.1812 H   0  0  0  0  0  0  0  0  0  0  0  0
   -8.4021  -12.7096  -11.1462 H   0  0  0  0  0  0  0  0  0  0  0  0
   -9.0576  -11.2212  -10.4760 H   0  0  0  0  0  0  0  0  0  0  0  0
   -7.9455   -6.7301   -4.7574 H   0  0  0  0  0  0  0  0  0  0  0  0
   -7.5662   -7.9483   -5.9664 H   0  0  0  0  0  0  0  0  0  0  0  0
   -7.5544   -9.1265   -3.9299 H   0  0  0  0  0  0  0  0  0  0  0  0
   -5.8551   -8.9170   -4.3013 H   0  0  0  0  0  0  0  0  0  0  0  0
   -6.0191   -8.4139   -2.0033 H   0  0  0  0  0  0  0  0  0  0  0  0
   -5.9298   -6.8346   -2.7740 H   0  0  0  0  0  0  0  0  0  0  0  0
   -7.6008   -6.7080   -1.0824 H   0  0  0  0  0  0  0  0  0  0  0  0
   -8.4563   -6.6819   -2.6144 H   0  0  0  0  0  0  0  0  0  0  0  0
   -9.6439   -8.0606   -1.0565 H   0  0  0  0  0  0  0  0  0  0  0  0
   -9.0564   -9.0619   -2.3682 H   0  0  0  0  0  0  0  0  0  0  0  0
   -8.8323  -10.1982   -0.2406 H   0  0  0  0  0  0  0  0  0  0  0  0
   -7.2507   -9.9481   -0.9606 H   0  0  0  0  0  0  0  0  0  0  0  0
   -7.1574   -9.5531    1.4222 H   0  0  0  0  0  0  0  0  0  0  0  0
   -6.8408   -8.0393    0.5879 H   0  0  0  0  0  0  0  0  0  0  0  0
   -9.5411   -8.8347    1.7788 H   0  0  0  0  0  0  0  0  0  0  0  0
   -8.3693   -7.7724    2.5554 H   0  0  0  0  0  0  0  0  0  0  0  0
   -9.1543   -7.2684    1.0640 H   0  0  0  0  0  0  0  0  0  0  0  0
   -5.4175   -3.9547   -5.7918 H   0  0  0  0  0  0  0  0  0  0  0  0
   -7.1086   -4.3826   -6.0436 H   0  0  0  0  0  0  0  0  0  0  0  0
   -7.1164   -3.2728   -3.9789 H   0  0  0  0  0  0  0  0  0  0  0  0
   -7.2310   -4.9668   -3.5417 H   0  0  0  0  0  0  0  0  0  0  0  0
   -5.6611   -4.1371   -2.0229 H   0  0  0  0  0  0  0  0  0  0  0  0
   -4.6369   -4.8583   -3.2529 H   0  0  0  0  0  0  0  0  0  0  0  0
   -3.6003   -2.7865   -2.9300 H   0  0  0  0  0  0  0  0  0  0  0  0
   -4.6378   -2.4208   -4.2997 H   0  0  0  0  0  0  0  0  0  0  0  0
   -4.8855   -0.6134   -2.8112 H   0  0  0  0  0  0  0  0  0  0  0  0
   -6.3636   -1.5466   -2.6444 H   0  0  0  0  0  0  0  0  0  0  0  0
   -5.6148   -0.8025   -0.4817 H   0  0  0  0  0  0  0  0  0  0  0  0
   -5.5215   -2.5552   -0.5457 H   0  0  0  0  0  0  0  0  0  0  0  0
   -3.6092   -1.6383    0.6135 H   0  0  0  0  0  0  0  0  0  0  0  0
   -3.0648   -2.4391   -0.8507 H   0  0  0  0  0  0  0  0  0  0  0  0
   -3.4754    0.5782   -0.5898 H   0  0  0  0  0  0  0  0  0  0  0  0
   -1.9245   -0.2388   -0.4249 H   0  0  0  0  0  0  0  0  0  0  0  0
   -2.7617   -0.2537   -1.9738 H   0  0  0  0  0  0  0  0  0  0  0  0
  1  2  1  0  0  0  0
  2  3  1  0  0  0  0
  3  4  1  0  0  0  0
  4  5  1  0  0  0  0
  5  6  1  0  0  0  0
  6  7  1  0  0  0  0
  7  8  1  0  0  0  0
  8  9  1  0  0  0  0
  9 10  1  0  0  0  0
 10 11  1  0  0  0  0
 11 12  1  0  0  0  0
 12 13  1  0  0  0  0
 13 14  1  0  0  0  0
 14 15  1  0  0  0  0
 15 16  1  0  0  0  0
 16 17  1  0  0  0  0
 17 18  1  0  0  0  0
 18 19  1  0  0  0  0
 19 20  1  0  0  0  0
 20 21  1  0  0  0  0
 13 22  1  0  0  0  0
 22 23  1  0  0  0  0
 23 24  1  0  0  0  0
 24 25  1  0  0  0  0
 25 26  1  0  0  0  0
 26 27  1  0  0  0  0
 27 28  1  0  0  0  0
 28 29  1  0  0  0  0
 13 30  1  0  0  0  0
 30 31  1  0  0  0  0
 31 32  1  0  0  0  0
 32 33  1  0  0  0  0
 33 34  1  0  0  0  0
 34 35  1  0  0  0  0
 35 36  1  0  0  0  0
 36 37  1  0  0  0  0
  1 38  1  0  0  0  0
  1 39  1  0  0  0  0
  1 40  1  0  0  0  0
  2 41  1  0  0  0  0
  2 42  1  0  0  0  0
  3 43  1  0  0  0  0
  3 44  1  0  0  0  0
  4 45  1  0  0  0  0
  4 46  1  0  0  0  0
  5 47  1  0  0  0  0
  5 48  1  0  0  0  0
  6 49  1  0  0  0  0
  6 50  1  0  0  0  0
  7 51  1  0  0  0  0
  7 52  1  0  0  0  0
  8 53  1  0  0  0  0
  8 54  1  0  0  0  0
  9 55  1  0  0  0  0
  9 56  1  0  0  0  0
 10 57  1  0  0  0  0
 10 58  1  0  0  0  0
 11 59  1  0  0  0  0
 11 60  1  0  0  0  0
 12 61  1  0  0  0  0
 12 62  1  0  0  0  0
 14 63  1  0  0  0  0
 14 64  1  0  0  0  0
 15 65  1  0  0  0  0
 15 66  1  0  0  0  0
 16 67  1  0  0  0  0
 16 68  1  0  0  0  0
 17 69  1  0  0  0  0
 17 70  1  0  0  0  0
 18 71  1  0  0  0  0
 18 72  1  0  0  0  0
 19 73  1  0  0  0  0
 19 74  1  0  0  0  0
 20 75  1  0  0  0  0
 20 76  1  0  0  0  0
 21 77  1  0  0  0  0
 21 78  1  0  0  0  0
 21 79  1  0  0  0  0
 22 80  1  0  0  0  0
 22 81  1  0  0  0  0
 23 82  1  0  0  0  0
 23 83  1  0  0  0  0
 24 84  1  0  0  0  0
 24 85  1  0  0  0  0
 25 86  1  0  0  0  0
 25 87  1  0  0  0  0
 26 88  1  0  0  0  0
 26 89  1  0  0  0  0
 27 90  1  0  0  0  0
 27 91  1  0  0  0  0
 28 92  1  0  0  0  0
 28 93  1  0  0  0  0
 29 94  1  0  0  0  0
 29 95  1  0  0  0  0
 29 96  1  0  0  0  0
 30 97  1  0  0  0  0
 30 98  1  0  0  0  0
 31 99  1  0  0  0  0
 31100  1  0  0  0  0
 32101  1  0  0  0  0
 32102  1  0  0  0  0
 33103  1  0  0  0  0
 33104  1  0  0  0  0
 34105  1  0  0  0  0
 34106  1  0  0  0  0
 35107  1  0  0  0  0
 35108  1  0  0  0  0
 36109  1  0  0  0  0
 36110  1  0  0  0  0
 37111  1  0  0  0  0
 37112  1  0  0  0  0
 37113  1  0  0  0  0
M  CHG  1   1   1
M  END
