26

C          0.86269       -0.14441        0.18980
C          0.49321       -0.72679       -1.15969
N          0.99068       -2.11802       -1.24808
C          2.23176       -2.36130       -1.71687
C          2.71369       -3.66552       -1.80796
C          1.93282       -4.76262       -1.42679
C          0.65624       -4.45695       -0.94118
C          0.20262       -3.14182       -0.86112
N          2.40921       -6.06720       -1.48618
C          3.65995       -6.37315       -2.18707
C          1.49789       -7.20140       -1.30576
H          0.42530       -0.72995        1.00482
H          0.49887        0.88407        0.27289
H          1.94816       -0.13625        0.33175
H         -0.59199       -0.74202       -1.30628
H          0.93782       -0.15348       -1.98010
H          2.83812       -1.50936       -2.01056
H          3.72489       -3.79786       -2.18324
H         -0.01954       -5.23852       -0.60458
H         -0.78688       -2.90414       -0.48139
H          3.91190       -7.43715       -2.11814
H          3.58145       -6.11932       -3.24978
H          4.50226       -5.83276       -1.74189
H          1.02853       -7.17474       -0.31652
H          0.72277       -7.20349       -2.07985
H          2.02714       -8.15885       -1.36495
