36

C          0.99184        0.07607        0.16487
C          0.60604        0.28062       -1.29144
C          1.09194       -0.83652       -2.21718
C          0.59036       -2.24575       -1.88931
C         -0.92980       -2.41612       -1.82400
C         -1.67340       -2.23900       -3.15048
N         -1.28488       -3.28833       -4.14012
C         -1.68243       -4.55812       -3.86077
C         -1.35618       -5.62785       -4.67289
C         -0.61759       -5.40130       -5.81765
C         -0.23514       -4.10263       -6.14582
C         -0.58864       -3.01490       -5.29321
C         -0.20595       -1.72353       -5.69924
C          0.51413       -1.51173       -6.88088
C          0.86472       -2.58462       -7.68832
C          0.49008       -3.87419       -7.32442
H          0.48542       -0.79247        0.59589
H          0.70641        0.95269        0.75526
H          2.07221       -0.06514        0.26917
H         -0.48009        0.39767       -1.37162
H          1.04280        1.22569       -1.63681
H          0.81361       -0.57623       -3.24169
H          2.18924       -0.85399       -2.20084
H          1.00607       -2.94585       -2.62374
H          1.00969       -2.55176       -0.92287
H         -1.13463       -3.41419       -1.41885
H         -1.35019       -1.71630       -1.09311
H         -2.75276       -2.36274       -2.99311
H         -1.54052       -1.23663       -3.55090
H         -2.26988       -4.71320       -2.95861
H         -1.67586       -6.63531       -4.41541
H         -0.35639       -6.24301       -6.45918
H         -0.44962       -0.83037       -5.13655
H          0.80046       -0.50203       -7.17376
H          1.42473       -2.41754       -8.60740
H          0.76867       -4.69948       -7.97995
