 xtb: 6.7.1 (edcfbbe)
          12202407173D

 33 34  0     0  0            999 V2000
    1.2959    1.0829   -0.6438 N   0  0  0  0  0  0  0  0  0  0  0  0
    2.2680    0.5121   -0.4548 C   0  0  0  0  0  0  0  0  0  0  0  0
    3.5433   -0.1245   -0.2580 C   0  0  0  0  0  0  0  0  0  0  0  0
    4.3990   -0.0976   -1.5383 C   0  0  0  0  0  0  0  0  0  0  0  0
    4.2115    1.1704   -2.3818 C   0  0  0  0  0  0  0  0  0  0  0  0
    4.3530    2.3918   -1.6167 N   0  0  0  0  0  0  0  0  0  0  0  0
    5.4017    2.7286   -0.8784 C   0  0  0  0  0  0  0  0  0  0  0  0
    5.2192    3.9060   -0.2834 N   0  0  0  0  0  0  0  0  0  0  0  0
    3.9674    4.3677   -0.6419 C   0  0  0  0  0  0  0  0  0  0  0  0
    3.4149    3.4012   -1.5047 C   0  0  0  0  0  0  0  0  0  0  0  0
    2.1502    3.5729   -2.0563 C   0  0  0  0  0  0  0  0  0  0  0  0
    1.4673    4.7193   -1.7093 C   0  0  0  0  0  0  0  0  0  0  0  0
    2.0159    5.6756   -0.8496 C   0  0  0  0  0  0  0  0  0  0  0  0
    3.2723    5.5218   -0.3019 C   0  0  0  0  0  0  0  0  0  0  0  0
    6.0907    4.4852    0.7116 C   0  0  0  0  0  0  0  0  0  0  0  0
    5.6438    4.0510    2.1236 C   0  0  0  0  0  0  0  0  0  0  0  0
    5.4485    2.6243    2.1231 C   0  0  0  0  0  0  0  0  0  0  0  0
    5.2791    1.5020    1.9907 N   0  0  0  0  0  0  0  0  0  0  0  0
    4.0498    0.3906    0.5653 H   0  0  0  0  0  0  0  0  0  0  0  0
    3.3786   -1.1575    0.0553 H   0  0  0  0  0  0  0  0  0  0  0  0
    5.4459   -0.2221   -1.2593 H   0  0  0  0  0  0  0  0  0  0  0  0
    4.1270   -0.9381   -2.1783 H   0  0  0  0  0  0  0  0  0  0  0  0
    4.9412    1.1735   -3.1974 H   0  0  0  0  0  0  0  0  0  0  0  0
    3.2104    1.1783   -2.8146 H   0  0  0  0  0  0  0  0  0  0  0  0
    6.2904    2.1342   -0.7767 H   0  0  0  0  0  0  0  0  0  0  0  0
    1.7071    2.8444   -2.7134 H   0  0  0  0  0  0  0  0  0  0  0  0
    0.4801    4.8834   -2.1099 H   0  0  0  0  0  0  0  0  0  0  0  0
    1.4401    6.5548   -0.6087 H   0  0  0  0  0  0  0  0  0  0  0  0
    3.6900    6.2664    0.3560 H   0  0  0  0  0  0  0  0  0  0  0  0
    7.1105    4.1428    0.5204 H   0  0  0  0  0  0  0  0  0  0  0  0
    6.0600    5.5729    0.6263 H   0  0  0  0  0  0  0  0  0  0  0  0
    6.4020    4.3254    2.8592 H   0  0  0  0  0  0  0  0  0  0  0  0
    4.6993    4.5282    2.3992 H   0  0  0  0  0  0  0  0  0  0  0  0
  1  2  3  0  0  0  0
  2  3  1  0  0  0  0
  3  4  1  0  0  0  0
  4  5  1  0  0  0  0
  5  6  1  0  0  0  0
  6  7  4  0  0  0  0
  7  8  4  0  0  0  0
  8  9  1  0  0  0  0
  6 10  1  0  0  0  0
  9 10  4  0  0  0  0
 10 11  4  0  0  0  0
 11 12  4  0  0  0  0
 12 13  4  0  0  0  0
  9 14  4  0  0  0  0
 13 14  4  0  0  0  0
  8 15  1  0  0  0  0
 15 16  1  0  0  0  0
 16 17  1  0  0  0  0
 17 18  3  0  0  0  0
  3 19  1  0  0  0  0
  3 20  1  0  0  0  0
  4 21  1  0  0  0  0
  4 22  1  0  0  0  0
  5 23  1  0  0  0  0
  5 24  1  0  0  0  0
  7 25  1  0  0  0  0
 11 26  1  0  0  0  0
 12 27  1  0  0  0  0
 13 28  1  0  0  0  0
 14 29  1  0  0  0  0
 15 30  1  0  0  0  0
 15 31  1  0  0  0  0
 16 32  1  0  0  0  0
 16 33  1  0  0  0  0
M  CHG  1   1   1
M  END
