33

N          1.03952        0.05406       -0.07427
C          2.30049        0.05406       -0.07427
C          3.82049        0.05406       -0.07427
C          4.40593       -0.00979       -1.48292
C          4.05215        1.19155       -2.36527
N          4.27661        2.47877       -1.69451
C          5.39337        2.81131       -1.02816
N          5.12649        3.90258       -0.28970
C          3.93617        4.47109       -0.74050
C          3.38494        3.55145       -1.64377
C          2.16249        3.77444       -2.27212
C          1.52025        4.98061       -1.95935
C          2.07550        5.90432       -1.05300
C          3.29966        5.66559       -0.41380
C          5.95452        4.36092        0.83748
C          5.48745        3.76613        2.16847
C          5.64711        2.25545        2.11607
N          5.77956        1.00221        2.07260
H          4.10721        0.97985        0.41145
H          4.17649       -0.79202        0.52198
H          5.49734       -0.07196       -1.39400
H          4.07942       -0.92740       -1.98710
H          4.66334        1.18236       -3.27474
H          3.00459        1.12217       -2.67467
H          6.30250        2.22140       -0.97938
H          1.72806        3.06310       -2.96381
H          0.56112        5.20894       -2.42691
H          1.53363        6.82774       -0.84318
H          3.72379        6.37609        0.28431
H          6.99371        4.08016        0.62659
H          5.91593        5.45465        0.87739
H          6.08815        4.16480        2.99213
H          4.43617        4.00891        2.35485
