31

C          0.23240       -0.96054        0.39264
C         -0.10648       -0.18509        1.66564
C          0.99938        0.79522        2.08227
C          0.95915        2.17645        1.45414
O          0.68047        3.16941        2.12931
C          1.34673        2.32907       -0.01016
N          2.64577        3.14669       -0.28427
C          3.86308        2.37287        0.19466
C          2.75333        3.38287       -1.78655
C          2.59981        4.50462        0.41985
C         -1.48079        0.47144        1.54769
H          0.14895       -0.33943       -0.50286
H         -0.45706       -1.80283        0.26736
H          1.24690       -1.37032        0.43922
H         -0.17026       -0.93265        2.46843
H          0.92089        0.95338        3.16676
H          1.99508        0.36847        1.91713
H          1.49905        1.35570       -0.47904
H          0.52669        2.84269       -0.52540
H          3.88358        1.40869       -0.32226
H          4.75931        2.95262       -0.04428
H          3.78231        2.22454        1.27487
H          1.89468        3.98189       -2.10452
H          3.68676        3.91589       -1.99000
H          2.75089        2.41161       -2.28986
H          1.65041        4.98960        0.17752
H          2.71238        4.35358        1.49611
H          3.43889        5.10469        0.05363
H         -2.25422       -0.28611        1.38030
H         -1.73602        1.01267        2.46438
H         -1.52236        1.17507        0.70955
