 xtb: 6.7.1 (edcfbbe)
          12202407183D

 34 34  0     0  0            999 V2000
    1.0734   -0.0340    0.0506 C   0  0  0  0  0  0  0  0  0  0  0  0
    0.3487    0.6961   -1.0757 C   0  0  0  0  0  0  0  0  0  0  0  0
    0.7480    0.1387   -2.4589 C   0  0  0  0  0  0  0  0  0  0  0  0
    0.3984   -1.2521   -2.6141 N   0  0  0  0  0  0  0  0  0  0  0  0
   -0.7922   -1.7313   -3.0678 C   0  0  0  0  0  0  0  0  0  0  0  0
   -0.7383   -3.0904   -2.9940 C   0  0  0  0  0  0  0  0  0  0  0  0
    0.4818   -3.4211   -2.4883 N   0  0  0  0  0  0  0  0  0  0  0  0
    1.1523   -2.2933   -2.2690 C   0  0  0  0  0  0  0  0  0  0  0  0
    0.9841   -4.7630   -2.3230 C   0  0  0  0  0  0  0  0  0  0  0  0
    1.4900   -5.3490   -3.6559 C   0  0  0  0  0  0  0  0  0  0  0  0
    2.6885   -4.5624   -4.1771 C   0  0  0  0  0  0  0  0  0  0  0  0
    1.8560   -6.8144   -3.4422 C   0  0  0  0  0  0  0  0  0  0  0  0
   -1.1625    0.6574   -0.8709 C   0  0  0  0  0  0  0  0  0  0  0  0
    0.7520   -1.0717    0.1228 H   0  0  0  0  0  0  0  0  0  0  0  0
    0.8501    0.4454    0.9989 H   0  0  0  0  0  0  0  0  0  0  0  0
    2.1509   -0.0038   -0.0922 H   0  0  0  0  0  0  0  0  0  0  0  0
    0.6724    1.7408   -1.0761 H   0  0  0  0  0  0  0  0  0  0  0  0
    0.2391    0.7059   -3.2404 H   0  0  0  0  0  0  0  0  0  0  0  0
    1.8268    0.2402   -2.5944 H   0  0  0  0  0  0  0  0  0  0  0  0
   -1.5785   -1.0919   -3.4128 H   0  0  0  0  0  0  0  0  0  0  0  0
   -1.4718   -3.8248   -3.2565 H   0  0  0  0  0  0  0  0  0  0  0  0
    2.1491   -2.2331   -1.8781 H   0  0  0  0  0  0  0  0  0  0  0  0
    1.8002   -4.7447   -1.5980 H   0  0  0  0  0  0  0  0  0  0  0  0
    0.1778   -5.3869   -1.9311 H   0  0  0  0  0  0  0  0  0  0  0  0
    0.6786   -5.2894   -4.3890 H   0  0  0  0  0  0  0  0  0  0  0  0
    3.5056   -4.5882   -3.4595 H   0  0  0  0  0  0  0  0  0  0  0  0
    3.0433   -5.0047   -5.1033 H   0  0  0  0  0  0  0  0  0  0  0  0
    2.4316   -3.5248   -4.3835 H   0  0  0  0  0  0  0  0  0  0  0  0
    1.0011   -7.3836   -3.0869 H   0  0  0  0  0  0  0  0  0  0  0  0
    2.1898   -7.2533   -4.3775 H   0  0  0  0  0  0  0  0  0  0  0  0
    2.6602   -6.9073   -2.7168 H   0  0  0  0  0  0  0  0  0  0  0  0
   -1.4180    1.1553    0.0600 H   0  0  0  0  0  0  0  0  0  0  0  0
   -1.6792    1.1732   -1.6765 H   0  0  0  0  0  0  0  0  0  0  0  0
   -1.5301   -0.3654   -0.8113 H   0  0  0  0  0  0  0  0  0  0  0  0
  1  2  1  0  0  0  0
  2  3  1  0  0  0  0
  3  4  1  0  0  0  0
  4  5  4  0  0  0  0
  5  6  2  0  0  0  0
  6  7  4  0  0  0  0
  4  8  4  0  0  0  0
  7  8  4  0  0  0  0
  7  9  1  0  0  0  0
  9 10  1  0  0  0  0
 10 11  1  0  0  0  0
 10 12  1  0  0  0  0
  2 13  1  0  0  0  0
  1 14  1  0  0  0  0
  1 15  1  0  0  0  0
  1 16  1  0  0  0  0
  2 17  1  0  0  0  0
  3 18  1  0  0  0  0
  3 19  1  0  0  0  0
  5 20  1  0  0  0  0
  6 21  1  0  0  0  0
  8 22  1  0  0  0  0
  9 23  1  0  0  0  0
  9 24  1  0  0  0  0
 10 25  1  0  0  0  0
 11 26  1  0  0  0  0
 11 27  1  0  0  0  0
 11 28  1  0  0  0  0
 12 29  1  0  0  0  0
 12 30  1  0  0  0  0
 12 31  1  0  0  0  0
 13 32  1  0  0  0  0
 13 33  1  0  0  0  0
 13 34  1  0  0  0  0
M  CHG  1   1   1
M  END
