32

C          1.19186        0.33899        0.01311
C          0.69508       -0.67626        1.02888
C          1.02602       -0.30916        2.47755
C          0.42646        1.00777        2.96741
N         -1.03161        1.08947        2.82236
C         -1.73982        2.21204        2.41804
C         -3.06189        1.86729        2.40668
N         -3.12935        0.54684        2.80723
C         -1.89645        0.09786        3.09327
C         -4.33111       -0.29967        2.87645
C         -4.33022       -1.35480        1.75385
O         -3.19300       -2.21460        1.91425
C         -5.59774       -2.19475        1.78455
H          0.67314        1.29633        0.11734
H          1.00959       -0.02801       -1.00219
H          2.26697        0.51143        0.12291
H         -0.38495       -0.81210        0.90607
H          1.15580       -1.64654        0.80689
H          0.68334       -1.12450        3.12569
H          2.11543       -0.26163        2.59718
H          0.65064        1.14183        4.03204
H          0.87902        1.85084        2.43330
H         -1.20482        3.11607        2.18234
H         -3.96718        2.39245        2.15576
H         -1.64880       -0.89380        3.45504
H         -4.32312       -0.78185        3.86135
H         -5.21750        0.34058        2.81121
H         -4.23053       -0.85730        0.78273
H         -3.24982       -2.90368        1.22368
H         -6.49051       -1.57239        1.67196
H         -5.58623       -2.93437        0.97667
H         -5.67333       -2.75502        2.72278
