22

C          0.97877        0.05695       -0.07195
C          0.46966       -0.38304       -1.43056
N          0.95248       -1.72723       -1.76867
C          0.32008       -2.85365       -1.40495
N          1.02460       -3.89076       -1.87382
C          2.13347       -3.42158       -2.55169
C          2.10757       -2.04647       -2.49698
C          3.04524       -1.05163       -3.05081
C          0.65494       -5.28659       -1.68262
H          0.64202       -0.63067        0.71045
H          0.61242        1.05932        0.16858
H          2.07284        0.07413       -0.05066
H         -0.62592       -0.40446       -1.43567
H          0.78531        0.32034       -2.20737
H         -0.59816       -2.91278       -0.83181
H          2.81429       -4.12912       -2.99510
H          2.52557       -0.41289       -3.76989
H          3.45128       -0.43573       -2.24412
H          3.87294       -1.55223       -3.56141
H          0.62419       -5.50090       -0.61104
H         -0.33149       -5.45488       -2.12288
H          1.38481       -5.94261       -2.16418
