 xtb: 6.7.1 (edcfbbe)
          12202407183D

 26 27  0     0  0            999 V2000
    1.2798   -0.4771    0.0984 N   0  0  0  0  0  0  0  0  0  0  0  0
    2.4007   -0.2729    0.0665 C   0  0  0  0  0  0  0  0  0  0  0  0
    3.8360   -0.0606   -0.0279 C   0  0  0  0  0  0  0  0  0  0  0  0
    4.3412   -0.6154   -1.2651 N   0  0  0  0  0  0  0  0  0  0  0  0
    4.2987   -1.9131   -1.6077 C   0  0  0  0  0  0  0  0  0  0  0  0
    3.7877   -2.9888   -0.7385 C   0  0  0  0  0  0  0  0  0  0  0  0
    4.7804   -2.0717   -2.8423 N   0  0  0  0  0  0  0  0  0  0  0  0
    5.1591   -0.8333   -3.3300 C   0  0  0  0  0  0  0  0  0  0  0  0
    4.8694    0.1037   -2.3224 C   0  0  0  0  0  0  0  0  0  0  0  0
    5.1265    1.4568   -2.4957 C   0  0  0  0  0  0  0  0  0  0  0  0
    5.6825    1.8376   -3.7002 C   0  0  0  0  0  0  0  0  0  0  0  0
    5.9753    0.9078   -4.7003 C   0  0  0  0  0  0  0  0  0  0  0  0
    5.7211   -0.4387   -4.5374 C   0  0  0  0  0  0  0  0  0  0  0  0
    4.8854   -3.3194   -3.5558 C   0  0  0  0  0  0  0  0  0  0  0  0
    4.0422    1.0125   -0.0070 H   0  0  0  0  0  0  0  0  0  0  0  0
    4.3243   -0.5275    0.8361 H   0  0  0  0  0  0  0  0  0  0  0  0
    4.1427   -2.8625    0.2835 H   0  0  0  0  0  0  0  0  0  0  0  0
    2.6964   -2.9666   -0.7070 H   0  0  0  0  0  0  0  0  0  0  0  0
    4.1031   -3.9640   -1.0969 H   0  0  0  0  0  0  0  0  0  0  0  0
    4.9054    2.1876   -1.7349 H   0  0  0  0  0  0  0  0  0  0  0  0
    5.8977    2.8796   -3.8743 H   0  0  0  0  0  0  0  0  0  0  0  0
    6.4118    1.2531   -5.6236 H   0  0  0  0  0  0  0  0  0  0  0  0
    5.9549   -1.1443   -5.3173 H   0  0  0  0  0  0  0  0  0  0  0  0
    5.6763   -3.9409   -3.1321 H   0  0  0  0  0  0  0  0  0  0  0  0
    3.9409   -3.8612   -3.5169 H   0  0  0  0  0  0  0  0  0  0  0  0
    5.1245   -3.1127   -4.5954 H   0  0  0  0  0  0  0  0  0  0  0  0
  1  2  3  0  0  0  0
  2  3  1  0  0  0  0
  3  4  1  0  0  0  0
  4  5  4  0  0  0  0
  5  6  1  0  0  0  0
  5  7  4  0  0  0  0
  7  8  1  0  0  0  0
  4  9  1  0  0  0  0
  8  9  4  0  0  0  0
  9 10  4  0  0  0  0
 10 11  4  0  0  0  0
 11 12  4  0  0  0  0
  8 13  4  0  0  0  0
 12 13  4  0  0  0  0
  7 14  1  0  0  0  0
  3 15  1  0  0  0  0
  3 16  1  0  0  0  0
  6 17  1  0  0  0  0
  6 18  1  0  0  0  0
  6 19  1  0  0  0  0
 10 20  1  0  0  0  0
 11 21  1  0  0  0  0
 12 22  1  0  0  0  0
 13 23  1  0  0  0  0
 14 24  1  0  0  0  0
 14 25  1  0  0  0  0
 14 26  1  0  0  0  0
M  CHG  1   1   1
M  END
