21

C          1.22204       -0.04432        0.04168
N          0.65400       -1.26262       -0.67324
C         -0.06482       -0.81191       -1.93407
C         -0.31170       -2.02499        0.25363
C          0.50549       -3.19216        0.76783
C          1.31982       -3.58768       -0.44424
C          1.78398       -2.25877       -1.01117
H          1.70439       -0.37646        0.96577
H          0.39818        0.63943        0.26617
H          1.94876        0.43463       -0.62110
H         -0.89583       -0.16309       -1.64217
H          0.64742       -0.26696       -2.56058
H         -0.43446       -1.69753       -2.45946
H         -1.15520       -2.37638       -0.35189
H         -0.67456       -1.35758        1.04080
H          1.16157       -2.87258        1.58612
H         -0.12413       -4.00797        1.13350
H          2.15865       -4.24176       -0.18989
H          0.69039       -4.11194       -1.17329
H          2.69969       -1.91718       -0.51615
H          1.94078       -2.28545       -2.09392
