 xtb: 6.7.1 (edcfbbe)
          12202407183D

 32 32  0     0  0            999 V2000
    1.3274    0.0048   -0.1753 N   0  0  0  0  0  0  0  0  0  0  0  0
    0.6470   -0.9669   -1.0206 C   0  0  0  0  0  0  0  0  0  0  0  0
   -0.8741   -0.8904   -0.8308 C   0  0  0  0  0  0  0  0  0  0  0  0
   -1.3656   -1.3383    0.5466 C   0  0  0  0  0  0  0  0  0  0  0  0
   -1.0633   -0.3272    1.6432 C   0  0  0  0  0  0  0  0  0  0  0  0
   -2.8698   -1.6097    0.5029 C   0  0  0  0  0  0  0  0  0  0  0  0
   -0.7245   -2.6714    0.8765 N   0  0  0  0  0  0  0  0  0  0  0  0
    0.7546   -2.9201    0.6581 C   0  0  0  0  0  0  0  0  0  0  0  0
    1.1373   -2.3909   -0.7250 C   0  0  0  0  0  0  0  0  0  0  0  0
    0.9227   -4.4394    0.7022 C   0  0  0  0  0  0  0  0  0  0  0  0
    1.5626   -2.2867    1.7814 C   0  0  0  0  0  0  0  0  0  0  0  0
    2.3279   -0.0303   -0.3430 H   0  0  0  0  0  0  0  0  0  0  0  0
    1.0226    0.9437   -0.4119 H   0  0  0  0  0  0  0  0  0  0  0  0
    0.8411   -0.7823   -2.0918 H   0  0  0  0  0  0  0  0  0  0  0  0
   -1.2053    0.1349   -0.9925 H   0  0  0  0  0  0  0  0  0  0  0  0
   -1.3402   -1.5088   -1.6005 H   0  0  0  0  0  0  0  0  0  0  0  0
   -1.7125    0.5348    1.5190 H   0  0  0  0  0  0  0  0  0  0  0  0
   -1.2595   -0.7451    2.6282 H   0  0  0  0  0  0  0  0  0  0  0  0
   -0.0383    0.0200    1.5886 H   0  0  0  0  0  0  0  0  0  0  0  0
   -3.1238   -2.3749   -0.2290 H   0  0  0  0  0  0  0  0  0  0  0  0
   -3.2437   -1.9162    1.4775 H   0  0  0  0  0  0  0  0  0  0  0  0
   -3.3974   -0.7037    0.2199 H   0  0  0  0  0  0  0  0  0  0  0  0
   -1.2184   -3.3731    0.3137 H   0  0  0  0  0  0  0  0  0  0  0  0
   -0.9260   -2.8721    1.8621 H   0  0  0  0  0  0  0  0  0  0  0  0
    0.7294   -3.0526   -1.4917 H   0  0  0  0  0  0  0  0  0  0  0  0
    2.2229   -2.4225   -0.8120 H   0  0  0  0  0  0  0  0  0  0  0  0
    1.9579   -4.6993    0.5017 H   0  0  0  0  0  0  0  0  0  0  0  0
    0.6689   -4.8359    1.6830 H   0  0  0  0  0  0  0  0  0  0  0  0
    0.3119   -4.9379   -0.0488 H   0  0  0  0  0  0  0  0  0  0  0  0
    1.6088   -1.2092    1.6756 H   0  0  0  0  0  0  0  0  0  0  0  0
    1.1519   -2.5448    2.7551 H   0  0  0  0  0  0  0  0  0  0  0  0
    2.5793   -2.6673    1.7446 H   0  0  0  0  0  0  0  0  0  0  0  0
  1  2  1  0  0  0  0
  2  3  1  0  0  0  0
  3  4  1  0  0  0  0
  4  5  1  0  0  0  0
  4  6  1  0  0  0  0
  4  7  1  0  0  0  0
  7  8  1  0  0  0  0
  2  9  1  0  0  0  0
  8  9  1  0  0  0  0
  8 10  1  0  0  0  0
  8 11  1  0  0  0  0
  1 12  1  0  0  0  0
  1 13  1  0  0  0  0
  2 14  1  0  0  0  0
  3 15  1  0  0  0  0
  3 16  1  0  0  0  0
  5 17  1  0  0  0  0
  5 18  1  0  0  0  0
  5 19  1  0  0  0  0
  6 20  1  0  0  0  0
  6 21  1  0  0  0  0
  6 22  1  0  0  0  0
  7 23  1  0  0  0  0
  7 24  1  0  0  0  0
  9 25  1  0  0  0  0
  9 26  1  0  0  0  0
 10 27  1  0  0  0  0
 10 28  1  0  0  0  0
 10 29  1  0  0  0  0
 11 30  1  0  0  0  0
 11 31  1  0  0  0  0
 11 32  1  0  0  0  0
M  CHG  1   1   1
M  END
