22

C          0.95924       -0.09112       -0.00604
N         -0.30173       -0.09112       -0.00604
C          2.47924       -0.09112       -0.00604
N          3.02479        0.40005        1.28542
C          2.92261        1.71531        1.59449
C          3.42180        2.20103        2.79755
C          4.03893        1.33040        3.69553
C          4.13200       -0.01863        3.35498
C          3.61212       -0.46521        2.14431
C          4.59441        1.83851        5.00483
C          5.86449        2.65460        4.81371
H          2.85758       -1.10155       -0.18999
H          2.86433        0.56986       -0.79019
H          2.43603        2.37333        0.87827
H          3.32540        3.26028        3.03319
H          4.60571       -0.72891        4.03153
H          3.66638       -1.51350        1.86168
H          3.83101        2.44572        5.50621
H          4.80465        0.99611        5.67496
H          5.67925        3.54798        4.20791
H          6.25310        2.98130        5.78349
H          6.64208        2.06594        4.31536
