22

O          1.18176       -0.15788        0.51988
N          0.43431        0.77286        1.24588
C          0.73744        2.11504        1.32079
C         -0.27795        2.69418        2.02262
N         -1.15605        1.68289        2.34166
C         -0.73795        0.47841        1.87241
C         -1.41458       -0.86932        2.01253
C         -2.78788       -0.95056        2.27413
C         -3.41090       -2.19488        2.40181
C         -2.66837       -3.36515        2.27223
C         -1.30241       -3.29445        2.01363
C         -0.67624       -2.05205        1.88262
O         -2.28568        1.85759        3.14791
Br        -0.43169        4.48290        2.46751
H          1.94039        0.32766        0.14515
H          1.63477        2.48997        0.86262
H         -3.41144       -0.06577        2.35077
H         -4.48019       -2.25391        2.59684
H         -3.15484       -4.33346        2.37309
H         -0.72352       -4.21157        1.92053
H          0.39557       -2.04439        1.71370
H         -2.30848        2.81081        3.36289
