 xtb: 6.7.1 (edcfbbe)
          12202407183D

 24 25  0     0  0            999 V2000
    0.7921    0.0429    0.1756 C   0  0  0  0  0  0  0  0  0  0  0  0
    0.4550    0.3390   -1.2380 C   0  0  0  0  0  0  0  0  0  0  0  0
    0.0819   -0.6521   -2.1127 C   0  0  0  0  0  0  0  0  0  0  0  0
   -0.2388   -0.3856   -3.4548 C   0  0  0  0  0  0  0  0  0  0  0  0
   -0.6232   -1.4010   -4.3567 C   0  0  0  0  0  0  0  0  0  0  0  0
   -0.9271   -1.1031   -5.6548 C   0  0  0  0  0  0  0  0  0  0  0  0
   -0.8503    0.2365   -6.0805 C   0  0  0  0  0  0  0  0  0  0  0  0
   -0.4786    1.2029   -5.1987 C   0  0  0  0  0  0  0  0  0  0  0  0
   -0.1748    0.9096   -3.9011 N   0  0  0  0  0  0  0  0  0  0  0  0
    0.1932    1.9011   -3.0429 C   0  0  0  0  0  0  0  0  0  0  0  0
    0.5105    1.6752   -1.7334 C   0  0  0  0  0  0  0  0  0  0  0  0
    0.9040    2.8011   -0.8452 C   0  0  0  0  0  0  0  0  0  0  0  0
    0.6886   -1.0161    0.3912 H   0  0  0  0  0  0  0  0  0  0  0  0
    0.1431    0.6040    0.8469 H   0  0  0  0  0  0  0  0  0  0  0  0
    1.8156    0.3470    0.3925 H   0  0  0  0  0  0  0  0  0  0  0  0
    0.0262   -1.6769   -1.7803 H   0  0  0  0  0  0  0  0  0  0  0  0
   -0.6686   -2.4133   -3.9887 H   0  0  0  0  0  0  0  0  0  0  0  0
   -1.2215   -1.8742   -6.3477 H   0  0  0  0  0  0  0  0  0  0  0  0
   -1.0834    0.5020   -7.0984 H   0  0  0  0  0  0  0  0  0  0  0  0
   -0.4067    2.2418   -5.4821 H   0  0  0  0  0  0  0  0  0  0  0  0
    0.2225    2.8976   -3.4582 H   0  0  0  0  0  0  0  0  0  0  0  0
    0.9015    3.7463   -1.3798 H   0  0  0  0  0  0  0  0  0  0  0  0
    0.2180    2.8747   -0.0024 H   0  0  0  0  0  0  0  0  0  0  0  0
    1.8992    2.6315   -0.4375 H   0  0  0  0  0  0  0  0  0  0  0  0
  1  2  1  0  0  0  0
  2  3  2  0  0  0  0
  3  4  4  0  0  0  0
  4  5  4  0  0  0  0
  5  6  2  0  0  0  0
  6  7  4  0  0  0  0
  7  8  2  0  0  0  0
  4  9  1  0  0  0  0
  8  9  1  0  0  0  0
  9 10  1  0  0  0  0
  2 11  4  0  0  0  0
 10 11  2  0  0  0  0
 11 12  1  0  0  0  0
  1 13  1  0  0  0  0
  1 14  1  0  0  0  0
  1 15  1  0  0  0  0
  3 16  1  0  0  0  0
  5 17  1  0  0  0  0
  6 18  1  0  0  0  0
  7 19  1  0  0  0  0
  8 20  1  0  0  0  0
 10 21  1  0  0  0  0
 12 22  1  0  0  0  0
 12 23  1  0  0  0  0
 12 24  1  0  0  0  0
M  CHG  1   1   1
M  END
