24

C          0.82060        0.01064        0.18649
C          0.47745        0.35687       -1.23794
C          0.11425       -0.65940       -2.12417
C         -0.21876       -0.37721       -3.45838
C         -0.59132       -1.39607       -4.35164
C         -0.92550       -1.09669       -5.66515
C         -0.88697        0.22127       -6.08380
C         -0.51415        1.21266       -5.18514
N         -0.18446        0.92539       -3.89881
C          0.17824        1.91701       -3.04632
C          0.53123        1.66871       -1.71740
C          0.89130        2.83309       -0.83352
H          0.58926       -1.03595        0.41179
H          0.24096        0.62732        0.88083
H          1.88962        0.16370        0.36465
H          0.08309       -1.69093       -1.77168
H         -0.62381       -2.43403       -4.02196
H         -1.21492       -1.88837       -6.35493
H         -1.14647        0.47867       -7.10883
H         -0.47754        2.25417       -5.49634
H          0.18514        2.93041       -3.44259
H          1.30832        3.65628       -1.42401
H         -0.00018        3.19400       -0.31137
H          1.65294        2.55928       -0.09735
