32

N          1.37372        0.05422       -0.31052
C          0.64789       -0.96824       -1.04871
C         -0.86160       -0.87410       -0.81864
C         -1.35389       -1.33715        0.56201
C         -1.12245       -0.32414        1.68861
C         -2.87474       -1.59508        0.48732
N         -0.72616       -2.67071        0.91617
C          0.75098       -2.90778        0.67257
C          1.14705       -2.37491       -0.71374
C          0.93939       -4.44050        0.68893
C          1.57909       -2.33859        1.82979
H          2.37027        0.02208       -0.54807
H          1.07988        0.98734       -0.61632
H          0.83908       -0.78680       -2.11396
H         -1.20739        0.15043       -1.01214
H         -1.34190       -1.49187       -1.59136
H         -1.69407        0.59294        1.50199
H         -1.45359       -0.72221        2.65494
H         -0.08386       -0.02017        1.80246
H         -3.12094       -2.34387       -0.27463
H         -3.26566       -1.95836        1.44499
H         -3.41577       -0.67649        0.23261
H         -1.23825       -3.39391        0.39299
H         -0.93087       -2.87555        1.90446
H          0.74138       -3.04957       -1.48167
H          2.23789       -2.42433       -0.83330
H          1.98861       -4.70794        0.51859
H          0.63731       -4.86976        1.65144
H          0.34438       -4.92941       -0.09130
H          1.56161       -1.25245        1.89289
H          1.23213       -2.72649        2.79472
H          2.63222       -2.62544        1.72400
