38

C          0.85749        0.23451        0.24273
C          0.82900       -0.15798       -1.22616
C          1.19334       -1.62346       -1.47124
C          0.27604       -2.66488       -0.82229
C         -1.23401       -2.57109       -1.07421
N         -1.74457       -3.03416       -2.45226
C         -1.26133       -4.47230       -2.83876
C         -1.81858       -5.61345       -1.99886
O         -2.77532       -6.29095       -2.34744
O         -1.18666       -5.69138       -0.79792
C         -1.65488       -6.72453        0.08921
C         -2.92540       -6.29245        0.80012
C         -3.28621       -3.04585       -2.39088
C         -1.35226       -2.07638       -3.56817
H          0.08333       -0.28740        0.81257
H          0.67973        1.30964        0.34761
H          1.83027        0.00784        0.69058
H         -0.15401        0.07320       -1.64761
H          1.54948        0.46929       -1.76536
H          1.26339       -1.79889       -2.54709
H          2.21012       -1.79241       -1.09181
H          0.65341       -3.66180       -1.06858
H          0.41665       -2.58351        0.26409
H         -1.74245       -3.20139       -0.33522
H         -1.60312       -1.55091       -0.92276
H         -1.58346       -4.63818       -3.87464
H         -0.16796       -4.48500       -2.84210
H         -1.79591       -7.66537       -0.45490
H         -0.86248       -6.89038        0.82629
H         -3.74903       -6.15476        0.09264
H         -3.22879       -7.04081        1.53782
H         -2.77845       -5.33303        1.30628
H         -3.62670       -2.01809       -2.23235
H         -3.66845       -3.43634       -3.33855
H         -3.60350       -3.67824       -1.55707
H         -1.56265       -1.05388       -3.24481
H         -0.29782       -2.21581       -3.80309
H         -1.94562       -2.31699       -4.45636
