 xtb: 6.7.1 (edcfbbe)
          12202407183D

 38 37  0     0  0            999 V2000
    0.8130    0.2953    0.0129 C   0  0  0  0  0  0  0  0  0  0  0  0
    1.0237   -0.5469   -1.2400 C   0  0  0  0  0  0  0  0  0  0  0  0
    0.8808   -2.0494   -0.9842 C   0  0  0  0  0  0  0  0  0  0  0  0
   -0.4963   -2.4947   -0.4822 C   0  0  0  0  0  0  0  0  0  0  0  0
   -1.7273   -2.1473   -1.3212 C   0  0  0  0  0  0  0  0  0  0  0  0
   -1.9026   -2.8385   -2.6456 N   0  0  0  0  0  0  0  0  0  0  0  0
   -1.4904   -4.2592   -2.5915 C   0  0  0  0  0  0  0  0  0  0  0  0
   -2.1305   -5.0696   -1.4451 C   0  0  0  0  0  0  0  0  0  0  0  0
   -3.1203   -4.7313   -0.8550 O   0  0  0  0  0  0  0  0  0  0  0  0
   -1.4399   -6.1685   -1.2639 O   0  0  0  0  0  0  0  0  0  0  0  0
   -1.8942   -7.0974   -0.2553 C   0  0  0  0  0  0  0  0  0  0  0  0
   -1.4075   -6.6911    1.1253 C   0  0  0  0  0  0  0  0  0  0  0  0
   -3.3323   -2.7517   -3.0196 C   0  0  0  0  0  0  0  0  0  0  0  0
   -1.1207   -2.1638   -3.7001 C   0  0  0  0  0  0  0  0  0  0  0  0
   -0.2161    0.2509    0.3612 H   0  0  0  0  0  0  0  0  0  0  0  0
    1.0498    1.3346   -0.1962 H   0  0  0  0  0  0  0  0  0  0  0  0
    1.4643   -0.0445    0.8138 H   0  0  0  0  0  0  0  0  0  0  0  0
    0.3348   -0.2134   -2.0192 H   0  0  0  0  0  0  0  0  0  0  0  0
    2.0343   -0.3703   -1.6117 H   0  0  0  0  0  0  0  0  0  0  0  0
    1.1718   -2.6043   -1.8801 H   0  0  0  0  0  0  0  0  0  0  0  0
    1.5996   -2.3257   -0.2104 H   0  0  0  0  0  0  0  0  0  0  0  0
   -0.4702   -3.5657   -0.2765 H   0  0  0  0  0  0  0  0  0  0  0  0
   -0.6680   -2.0068    0.4792 H   0  0  0  0  0  0  0  0  0  0  0  0
   -2.6010   -2.4057   -0.7203 H   0  0  0  0  0  0  0  0  0  0  0  0
   -1.7485   -1.0744   -1.5148 H   0  0  0  0  0  0  0  0  0  0  0  0
   -1.7778   -4.7491   -3.5265 H   0  0  0  0  0  0  0  0  0  0  0  0
   -0.4061   -4.3335   -2.4958 H   0  0  0  0  0  0  0  0  0  0  0  0
   -2.9865   -7.1386   -0.2844 H   0  0  0  0  0  0  0  0  0  0  0  0
   -1.4716   -8.0554   -0.5603 H   0  0  0  0  0  0  0  0  0  0  0  0
   -1.8522   -5.7452    1.4260 H   0  0  0  0  0  0  0  0  0  0  0  0
   -1.7005   -7.4522    1.8414 H   0  0  0  0  0  0  0  0  0  0  0  0
   -0.3244   -6.6003    1.1366 H   0  0  0  0  0  0  0  0  0  0  0  0
   -3.6558   -1.7128   -3.0042 H   0  0  0  0  0  0  0  0  0  0  0  0
   -3.4818   -3.1507   -4.0214 H   0  0  0  0  0  0  0  0  0  0  0  0
   -3.9363   -3.3211   -2.3150 H   0  0  0  0  0  0  0  0  0  0  0  0
   -1.4768   -1.1434   -3.8276 H   0  0  0  0  0  0  0  0  0  0  0  0
   -0.0662   -2.1371   -3.4423 H   0  0  0  0  0  0  0  0  0  0  0  0
   -1.2373   -2.6889   -4.6466 H   0  0  0  0  0  0  0  0  0  0  0  0
  1  2  1  0  0  0  0
  2  3  1  0  0  0  0
  3  4  1  0  0  0  0
  4  5  1  0  0  0  0
  5  6  1  0  0  0  0
  6  7  1  0  0  0  0
  7  8  1  0  0  0  0
  8  9  2  0  0  0  0
  8 10  4  0  0  0  0
 10 11  1  0  0  0  0
 11 12  1  0  0  0  0
  6 13  1  0  0  0  0
  6 14  1  0  0  0  0
  1 15  1  0  0  0  0
  1 16  1  0  0  0  0
  1 17  1  0  0  0  0
  2 18  1  0  0  0  0
  2 19  1  0  0  0  0
  3 20  1  0  0  0  0
  3 21  1  0  0  0  0
  4 22  1  0  0  0  0
  4 23  1  0  0  0  0
  5 24  1  0  0  0  0
  5 25  1  0  0  0  0
  7 26  1  0  0  0  0
  7 27  1  0  0  0  0
 11 28  1  0  0  0  0
 11 29  1  0  0  0  0
 12 30  1  0  0  0  0
 12 31  1  0  0  0  0
 12 32  1  0  0  0  0
 13 33  1  0  0  0  0
 13 34  1  0  0  0  0
 13 35  1  0  0  0  0
 14 36  1  0  0  0  0
 14 37  1  0  0  0  0
 14 38  1  0  0  0  0
M  CHG  1   1   1
M  END
