116

C          1.23649       -0.89114       -0.05488
C          1.44173       -0.10324        1.22984
C          1.77771        1.37222        0.99517
C          0.71768        2.17900        0.23696
C         -0.68096        2.17285        0.86166
C         -0.76354        2.75289        2.27806
C         -0.40706        4.23997        2.40022
C         -1.23806        5.19128        1.53050
C         -2.75314        5.08985        1.72720
C         -3.25701        5.54295        3.10233
C         -3.09811        7.03863        3.43425
C         -3.45552        8.06497        2.34707
N         -4.96129        8.39627        2.16330
C         -5.46351        9.31954        3.32838
C         -4.96736       10.77357        3.33251
C         -5.75897       11.80507        2.50968
C         -7.28025       11.80306        2.68788
C         -7.77519       12.12836        4.10015
C         -7.42608       13.53137        4.61135
C         -7.85094       14.69311        3.70487
C         -9.34091       14.74220        3.35005
C        -10.28939       14.94105        4.53580
C        -10.09743       16.24362        5.31993
C        -10.19083       17.53169        4.49710
C        -11.52700       17.70899        3.79228
C         -5.17851        9.10647        0.80174
C         -4.88261        8.31255       -0.48458
C         -5.87853        7.25186       -0.96370
C         -7.33128        7.70762       -1.10517
C         -7.59482        8.70445       -2.23739
C         -7.22526        8.22273       -3.64613
C         -7.78249        6.85309       -4.05208
C         -9.30564        6.71057       -3.97617
C        -10.09680        7.63979       -4.90018
C         -9.80280        7.48668       -6.39607
C         -9.98956        6.07830       -6.96707
C        -11.40229        5.53847       -6.80617
C         -5.84469        7.15576        2.24649
H          0.35743       -0.54243       -0.60475
H          1.08393       -1.95069        0.17448
H          2.10985       -0.80878       -0.70942
H          0.55272       -0.19764        1.86284
H          2.26688       -0.55994        1.78959
H          1.97128        1.84560        1.96489
H          2.72072        1.43474        0.43747
H          1.07060        3.21244        0.13885
H          0.64085        1.79710       -0.78824
H         -1.36022        2.72029        0.19800
H         -1.06516        1.14638        0.88329
H         -1.77908        2.59268        2.65904
H         -0.11188        2.18150        2.94899
H         -0.50687        4.53371        3.45189
H          0.65211        4.38037        2.15384
H         -0.90848        6.21961        1.71957
H         -1.01198        4.99872        0.47485
H         -3.24910        5.66320        0.93720
H         -3.07854        4.05664        1.56192
H         -4.30813        5.25390        3.19209
H         -2.75128        4.96426        3.88481
H         -3.63373        7.25181        4.36522
H         -2.03710        7.19387        3.67226
H         -2.96000        9.01251        2.57736
H         -3.05677        7.74598        1.38588
H         -6.55623        9.27373        3.31992
H         -5.13520        8.83419        4.25392
H         -5.00233       11.11351        4.37643
H         -3.91242       10.83625        3.04938
H         -5.36889       12.80130        2.75270
H         -5.54654       11.67926        1.44460
H         -7.70924       12.51837        1.97672
H         -7.68840       10.83225        2.38627
H         -8.86454       12.00305        4.12070
H         -7.38115       11.38960        4.80803
H         -7.87770       13.66148        5.60223
H         -6.34288       13.59636        4.77025
H         -7.55504       15.63432        4.18266
H         -7.27596       14.64887        2.77220
H         -9.49705       15.54486        2.61995
H         -9.62654       13.82054        2.83021
H        -11.32046       14.89489        4.16471
H        -10.19001       14.09838        5.23018
H        -10.85257       16.27873        6.11548
H         -9.12645       16.22293        5.82859
H        -10.03791       18.38296        5.17149
H         -9.38078       17.57424        3.76090
H        -12.35658       17.65930        4.50447
H        -11.56377       18.68461        3.29688
H        -11.68219       16.94391        3.02591
H         -6.20184        9.49116        0.79855
H         -4.48367        9.95251        0.80863
H         -4.80529        9.05641       -1.28976
H         -3.89145        7.85290       -0.44366
H         -5.52017        6.86940       -1.92705
H         -5.85175        6.37930       -0.30948
H         -7.95279        6.81772       -1.25715
H         -7.68491        8.14479       -0.16586
H         -8.65958        8.96730       -2.22078
H         -7.05544        9.63754       -2.03468
H         -7.55489        8.97884       -4.36880
H         -6.13259        8.18919       -3.73658
H         -7.44173        6.62693       -5.06921
H         -7.33351        6.07845       -3.41915
H         -9.56668        5.66891       -4.19719
H         -9.64161        6.88088       -2.94704
H        -11.16632        7.47145       -4.72505
H         -9.91318        8.68217       -4.61398
H        -10.45361        8.17883       -6.94522
H         -8.77658        7.81380       -6.60078
H         -9.74741        6.10576       -8.03638
H         -9.27824        5.38238       -6.50909
H        -12.13658        6.22317       -7.24189
H        -11.49559        4.57330       -7.31442
H        -11.65569        5.38296       -5.75339
H         -5.41388        6.37126        1.63025
H         -5.89650        6.82793        3.28903
H         -6.85014        7.41740        1.90725
