21

C          0.93358        0.07292       -0.06655
C          0.46561       -1.34354        0.11328
C         -0.84314       -1.60693        0.52224
C         -1.27697       -2.92675        0.65792
C         -2.65998       -3.28040        1.09719
N         -0.42107       -3.92925        0.38236
C          0.84537       -3.72555       -0.02777
C          1.30978       -2.41725       -0.17499
C          1.69633       -4.92024       -0.30963
H          0.54532        0.71098        0.73422
H          0.59072        0.46012       -1.03096
H          2.02630        0.13514       -0.03232
H         -1.52253       -0.78211        0.73508
H         -3.15445       -3.87740        0.32490
H         -2.61883       -3.86133        2.02351
H         -3.26588       -2.38741        1.27934
H         -0.74916       -4.88995        0.48608
H          2.32938       -2.23376       -0.51231
H          1.79251       -5.52979        0.59399
H          1.23945       -5.52464       -1.09908
H          2.70023       -4.63217       -0.63662
