17

C          1.09314        0.06972       -0.26641
C          0.48641       -1.27907       -0.59394
N          0.87778       -2.30719        0.42021
C          0.38333       -2.14465        1.82299
C         -1.12358       -2.28316        1.89051
H          0.66313        0.49438        0.64560
H          0.89631        0.77495       -1.08030
H          2.17779       -0.00164       -0.13643
H         -0.60482       -1.24282       -0.64682
H          0.86887       -1.64361       -1.55263
H          0.57503       -3.22929        0.07601
H          1.90568       -2.36028        0.44609
H          0.86306       -2.93920        2.40335
H          0.73008       -1.17995        2.20258
H         -1.45921       -3.21881        1.43183
H         -1.45195       -2.28232        2.93486
H         -1.62767       -1.45202        1.38840
