29

C          1.03890        0.04780        0.11124
C          0.72166       -0.62745       -1.22239
C          1.01681       -2.13507       -1.23411
N          0.49508       -2.90229       -0.06109
C         -0.97108       -3.15318        0.08445
C         -1.57805       -3.90626       -1.10520
C         -0.95227       -5.28806       -1.30506
C         -3.08845       -4.04901       -0.89842
C         -0.68886       -0.27035       -1.69077
H          0.34063       -0.25569        0.89777
H          0.97238        1.13702        0.01458
H          2.05504       -0.19519        0.43901
H          1.40139       -0.19055       -1.96761
H          0.66561       -2.62059       -2.14913
H          2.10330       -2.27799       -1.19393
H          0.96722       -3.81706       -0.06048
H          0.82893       -2.45285        0.80212
H         -1.07751       -3.73992        1.00442
H         -1.45439       -2.19060        0.25973
H         -1.43354       -3.32664       -2.02368
H         -1.04187       -5.89857       -0.40006
H         -1.44786       -5.82328       -2.12233
H          0.10856       -5.21396       -1.56274
H         -3.56048       -3.06581       -0.79750
H         -3.55224       -4.55424       -1.75236
H         -3.31465       -4.62898        0.00278
H         -0.74996        0.80041       -1.91658
H         -0.95073       -0.81380       -2.60417
H         -1.44839       -0.47686       -0.93446
