 xtb: 6.7.1 (edcfbbe)
          12202407183D

 25 25  0     0  0            999 V2000
    1.5326   -1.2750    1.4713 N   0  0  0  0  0  0  0  0  0  0  0  0
    2.3541   -0.7276    0.8985 C   0  0  0  0  0  0  0  0  0  0  0  0
    3.4352   -0.1345    0.1442 C   0  0  0  0  0  0  0  0  0  0  0  0
    4.6234   -1.1123    0.0761 C   0  0  0  0  0  0  0  0  0  0  0  0
    4.1800   -2.4123   -0.4025 N   0  0  0  0  0  0  0  0  0  0  0  0
    3.7942   -3.3497    0.4711 C   0  0  0  0  0  0  0  0  0  0  0  0
    3.2817   -4.5487    0.0329 C   0  0  0  0  0  0  0  0  0  0  0  0
    3.1488   -4.8134   -1.3293 C   0  0  0  0  0  0  0  0  0  0  0  0
    3.5702   -3.8149   -2.2342 C   0  0  0  0  0  0  0  0  0  0  0  0
    4.0714   -2.6364   -1.7208 C   0  0  0  0  0  0  0  0  0  0  0  0
    3.4752   -4.0181   -3.7048 C   0  0  0  0  0  0  0  0  0  0  0  0
    2.5862   -6.0932   -1.8124 C   0  0  0  0  0  0  0  0  0  0  0  0
    3.0677    0.1086   -0.8568 H   0  0  0  0  0  0  0  0  0  0  0  0
    3.7501    0.7915    0.6305 H   0  0  0  0  0  0  0  0  0  0  0  0
    5.3873   -0.7166   -0.5963 H   0  0  0  0  0  0  0  0  0  0  0  0
    5.0581   -1.2340    1.0705 H   0  0  0  0  0  0  0  0  0  0  0  0
    3.8950   -3.1301    1.5226 H   0  0  0  0  0  0  0  0  0  0  0  0
    2.9773   -5.2838    0.7607 H   0  0  0  0  0  0  0  0  0  0  0  0
    4.4010   -1.8456   -2.3793 H   0  0  0  0  0  0  0  0  0  0  0  0
    4.0524   -4.8919   -4.0038 H   0  0  0  0  0  0  0  0  0  0  0  0
    2.4417   -4.2004   -3.9959 H   0  0  0  0  0  0  0  0  0  0  0  0
    3.8438   -3.1550   -4.2504 H   0  0  0  0  0  0  0  0  0  0  0  0
    1.6976   -5.9100   -2.4167 H   0  0  0  0  0  0  0  0  0  0  0  0
    3.3018   -6.6058   -2.4552 H   0  0  0  0  0  0  0  0  0  0  0  0
    2.3209   -6.7470   -0.9873 H   0  0  0  0  0  0  0  0  0  0  0  0
  1  2  3  0  0  0  0
  2  3  1  0  0  0  0
  3  4  1  0  0  0  0
  4  5  1  0  0  0  0
  5  6  4  0  0  0  0
  6  7  4  0  0  0  0
  7  8  4  0  0  0  0
  8  9  4  0  0  0  0
  5 10  4  0  0  0  0
  9 10  4  0  0  0  0
  9 11  1  0  0  0  0
  8 12  1  0  0  0  0
  3 13  1  0  0  0  0
  3 14  1  0  0  0  0
  4 15  1  0  0  0  0
  4 16  1  0  0  0  0
  6 17  1  0  0  0  0
  7 18  1  0  0  0  0
 10 19  1  0  0  0  0
 11 20  1  0  0  0  0
 11 21  1  0  0  0  0
 11 22  1  0  0  0  0
 12 23  1  0  0  0  0
 12 24  1  0  0  0  0
 12 25  1  0  0  0  0
M  CHG  1   1   1
M  END
