 xtb: 6.7.1 (edcfbbe)
          12202407193D

 38 38  0     0  0            999 V2000
    1.3369    0.0706    0.6267 C   0  0  0  0  0  0  0  0  0  0  0  0
    0.3029    1.0646    1.1415 C   0  0  0  0  0  0  0  0  0  0  0  0
    0.6702    2.5224    0.8565 C   0  0  0  0  0  0  0  0  0  0  0  0
    0.8289    2.8714   -0.6263 C   0  0  0  0  0  0  0  0  0  0  0  0
   -0.4027    2.5990   -1.4906 C   0  0  0  0  0  0  0  0  0  0  0  0
   -1.6140    3.4720   -1.1409 C   0  0  0  0  0  0  0  0  0  0  0  0
   -1.3579    4.8671   -1.4451 N   0  0  0  0  0  0  0  0  0  0  0  0
   -0.9262    5.7199   -0.4981 C   0  0  0  0  0  0  0  0  0  0  0  0
   -0.6072    7.0153   -0.7734 C   0  0  0  0  0  0  0  0  0  0  0  0
   -0.7097    7.5241   -2.0973 C   0  0  0  0  0  0  0  0  0  0  0  0
   -1.1656    6.5885   -3.0679 C   0  0  0  0  0  0  0  0  0  0  0  0
   -1.4681    5.3101   -2.7126 C   0  0  0  0  0  0  0  0  0  0  0  0
   -0.4062    8.7816   -2.4056 N   0  0  0  0  0  0  0  0  0  0  0  0
   -0.0289    9.7275   -1.3772 C   0  0  0  0  0  0  0  0  0  0  0  0
   -0.4443    9.2400   -3.7779 C   0  0  0  0  0  0  0  0  0  0  0  0
    1.3810    0.0662   -0.4595 H   0  0  0  0  0  0  0  0  0  0  0  0
    1.0825   -0.9335    0.9555 H   0  0  0  0  0  0  0  0  0  0  0  0
    2.3237    0.3149    1.0125 H   0  0  0  0  0  0  0  0  0  0  0  0
   -0.6748    0.8303    0.7152 H   0  0  0  0  0  0  0  0  0  0  0  0
    0.2152    0.9502    2.2238 H   0  0  0  0  0  0  0  0  0  0  0  0
   -0.0833    3.1655    1.3191 H   0  0  0  0  0  0  0  0  0  0  0  0
    1.6198    2.7417    1.3489 H   0  0  0  0  0  0  0  0  0  0  0  0
    1.1113    3.9254   -0.7117 H   0  0  0  0  0  0  0  0  0  0  0  0
    1.6560    2.2896   -1.0327 H   0  0  0  0  0  0  0  0  0  0  0  0
   -0.1420    2.7610   -2.5391 H   0  0  0  0  0  0  0  0  0  0  0  0
   -0.7000    1.5570   -1.3840 H   0  0  0  0  0  0  0  0  0  0  0  0
   -2.4805    3.1440   -1.7193 H   0  0  0  0  0  0  0  0  0  0  0  0
   -1.8508    3.3787   -0.0808 H   0  0  0  0  0  0  0  0  0  0  0  0
   -0.8461    5.3329    0.5060 H   0  0  0  0  0  0  0  0  0  0  0  0
   -0.2653    7.6386    0.0336 H   0  0  0  0  0  0  0  0  0  0  0  0
   -1.2927    6.8771   -4.0962 H   0  0  0  0  0  0  0  0  0  0  0  0
   -1.8207    4.5989   -3.4441 H   0  0  0  0  0  0  0  0  0  0  0  0
    0.0286   10.7242   -1.8045 H   0  0  0  0  0  0  0  0  0  0  0  0
   -0.7711    9.7469   -0.5778 H   0  0  0  0  0  0  0  0  0  0  0  0
    0.9469    9.4792   -0.9530 H   0  0  0  0  0  0  0  0  0  0  0  0
    0.1465    8.5861   -4.4213 H   0  0  0  0  0  0  0  0  0  0  0  0
   -1.4699    9.2782   -4.1524 H   0  0  0  0  0  0  0  0  0  0  0  0
   -0.0217   10.2385   -3.8385 H   0  0  0  0  0  0  0  0  0  0  0  0
  1  2  1  0  0  0  0
  2  3  1  0  0  0  0
  3  4  1  0  0  0  0
  4  5  1  0  0  0  0
  5  6  1  0  0  0  0
  6  7  1  0  0  0  0
  7  8  4  0  0  0  0
  8  9  2  0  0  0  0
  9 10  4  0  0  0  0
 10 11  4  0  0  0  0
  7 12  4  0  0  0  0
 11 12  2  0  0  0  0
 10 13  4  0  0  0  0
 13 14  1  0  0  0  0
 13 15  1  0  0  0  0
  1 16  1  0  0  0  0
  1 17  1  0  0  0  0
  1 18  1  0  0  0  0
  2 19  1  0  0  0  0
  2 20  1  0  0  0  0
  3 21  1  0  0  0  0
  3 22  1  0  0  0  0
  4 23  1  0  0  0  0
  4 24  1  0  0  0  0
  5 25  1  0  0  0  0
  5 26  1  0  0  0  0
  6 27  1  0  0  0  0
  6 28  1  0  0  0  0
  8 29  1  0  0  0  0
  9 30  1  0  0  0  0
 11 31  1  0  0  0  0
 12 32  1  0  0  0  0
 14 33  1  0  0  0  0
 14 34  1  0  0  0  0
 14 35  1  0  0  0  0
 15 36  1  0  0  0  0
 15 37  1  0  0  0  0
 15 38  1  0  0  0  0
M  CHG  1   1   1
M  END
