45

C          1.74315       -0.69614        0.03798
C          1.07815       -1.40248        1.20915
C          1.20066       -0.63377        2.52658
C          0.36138        0.64276        2.60243
N         -1.07803        0.36890        2.59819
C         -1.77156       -0.14069        3.61175
N         -1.25642       -0.42175        4.80566
N         -3.03831       -0.32499        3.24368
C         -3.20506        0.16561        1.94996
C         -1.94649        0.61617        1.53664
C         -1.74070        1.18185        0.28015
C         -2.86413        1.27381       -0.55121
C         -4.12940        0.82239       -0.13539
C         -4.32946        0.25776        1.13101
C         -4.11718       -0.84781        4.09563
C         -3.72517       -2.13794        4.79821
O         -2.93151       -2.11548        5.74402
C         -4.26929       -3.43173        4.31453
C         -4.61934       -3.63121        2.97402
C         -5.12021       -4.86903        2.56445
C         -5.26471       -5.90615        3.48553
C         -4.90153       -5.71459        4.81750
C         -4.39895       -4.48114        5.23277
H          1.27212        0.26566       -0.17759
H          1.66960       -1.31321       -0.86326
H          2.80457       -0.51988        0.23970
H          0.02702       -1.60180        0.97522
H          1.55983       -2.37987        1.33473
H          0.90831       -1.30784        3.33984
H          2.25289       -0.37691        2.69852
H          0.58947        1.17601        3.53314
H          0.61617        1.33092        1.79173
H         -0.29380       -0.23786        5.03404
H         -1.79421       -0.94648        5.49800
H         -0.77053        1.53759       -0.04009
H         -2.75701        1.71019       -1.54495
H         -4.97555        0.92004       -0.81655
H         -5.30768       -0.07971        1.44778
H         -4.33390       -0.09471        4.86246
H         -5.03932       -0.98401        3.52626
H         -4.48908       -2.85806        2.22312
H         -5.39087       -5.03444        1.52334
H         -5.65257       -6.87076        3.16308
H         -5.00660       -6.52933        5.53129
H         -4.11352       -4.34886        6.27507
