49

C          0.99822       -0.54796       -0.14585
C          0.28578        0.67609        0.41841
C          1.00666        1.97524        0.06459
C          2.20800        2.27597        0.94002
O          2.93362        1.47058        1.49299
O          2.34896        3.63445        1.06069
C          1.33121        4.26681        0.28957
C          0.19117        3.26109        0.27198
C         -0.64134        3.24922        1.57623
C         -1.20754        4.58005        1.92342
C         -2.30712        5.24643        1.42746
N         -2.36362        6.48227        2.04505
C         -1.32676        6.60393        2.88488
N         -0.66504        5.43751        2.88881
C          0.42029        5.14335        3.82610
C         -3.38254        7.52781        1.83636
C         -4.37124        7.63398        3.00416
O         -3.78024        8.37312        4.07860
C         -3.29975        7.69687        5.16164
C         -3.77006        6.47683        5.64149
C         -3.14876        5.87156        6.73852
C         -2.06643        6.48807        7.36453
C         -1.61933        7.72656        6.91358
C         -2.24609        8.33459        5.82583
H          1.07121       -0.48979       -1.23672
H          0.44256       -1.45656        0.10667
H          2.00890       -0.64981        0.25959
H         -0.72977        0.69571        0.00587
H          0.20008        0.55771        1.50481
H          1.36369        1.93702       -0.97338
H          1.72575        4.45763       -0.71562
H          1.07611        5.23107        0.73442
H         -0.47650        3.45450       -0.57593
H         -1.48374        2.55532        1.46556
H         -0.05175        2.88450        2.42382
H         -3.05242        4.99565        0.69115
H         -1.07241        7.47901        3.46905
H          0.72862        6.06045        4.33524
H          0.05802        4.42399        4.56566
H          1.27617        4.73120        3.28974
H         -2.85142        8.47476        1.68641
H         -3.92347        7.28742        0.91439
H         -5.23535        8.22114        2.67410
H         -4.74581        6.64625        3.28221
H         -4.64012        5.98511        5.21994
H         -3.52830        4.92750        7.12473
H         -1.59752        6.02042        8.22788
H         -0.80033        8.22899        7.42367
H         -1.90738        9.31427        5.49447
