 xtb: 6.7.1 (edcfbbe)
          12202407183D

 25 25  0     0  0            999 V2000
    0.7483   -1.5055    0.4493 O   0  0  0  0  0  0  0  0  0  0  0  0
    0.3349   -0.5614    1.3131 C   0  0  0  0  0  0  0  0  0  0  0  0
    1.0858    0.0789    1.9865 O   0  0  0  0  0  0  0  0  0  0  0  0
   -1.1704   -0.3949    1.2813 C   0  0  0  0  0  0  0  0  0  0  0  0
   -1.5538    1.0700    1.0685 C   0  0  0  0  0  0  0  0  0  0  0  0
   -1.0138    1.6366   -0.2507 C   0  0  0  0  0  0  0  0  0  0  0  0
   -1.5577    0.9415   -1.3955 N   0  0  0  0  0  0  0  0  0  0  0  0
   -2.6950    1.2762   -2.0643 C   0  0  0  0  0  0  0  0  0  0  0  0
   -2.8869    0.3391   -3.0337 C   0  0  0  0  0  0  0  0  0  0  0  0
   -1.8654   -0.5568   -2.9375 N   0  0  0  0  0  0  0  0  0  0  0  0
   -1.0745   -0.1738   -1.9394 C   0  0  0  0  0  0  0  0  0  0  0  0
   -1.6846   -1.7090   -3.7787 C   0  0  0  0  0  0  0  0  0  0  0  0
    1.7001   -1.6717    0.5554 H   0  0  0  0  0  0  0  0  0  0  0  0
   -1.5952   -1.0510    0.5213 H   0  0  0  0  0  0  0  0  0  0  0  0
   -1.5472   -0.7153    2.2544 H   0  0  0  0  0  0  0  0  0  0  0  0
   -2.6390    1.1727    1.1027 H   0  0  0  0  0  0  0  0  0  0  0  0
   -1.1255    1.6633    1.8766 H   0  0  0  0  0  0  0  0  0  0  0  0
   -1.2814    2.6913   -0.3328 H   0  0  0  0  0  0  0  0  0  0  0  0
    0.0743    1.5494   -0.2703 H   0  0  0  0  0  0  0  0  0  0  0  0
   -3.2766    2.1412   -1.8185 H   0  0  0  0  0  0  0  0  0  0  0  0
   -3.6614    0.2543   -3.7686 H   0  0  0  0  0  0  0  0  0  0  0  0
   -0.1883   -0.6880   -1.6164 H   0  0  0  0  0  0  0  0  0  0  0  0
   -0.7940   -2.2535   -3.4740 H   0  0  0  0  0  0  0  0  0  0  0  0
   -2.5501   -2.3677   -3.7027 H   0  0  0  0  0  0  0  0  0  0  0  0
   -1.5766   -1.4007   -4.8191 H   0  0  0  0  0  0  0  0  0  0  0  0
  1  2  1  0  0  0  0
  2  3  2  0  0  0  0
  2  4  1  0  0  0  0
  4  5  1  0  0  0  0
  5  6  1  0  0  0  0
  6  7  1  0  0  0  0
  7  8  4  0  0  0  0
  8  9  2  0  0  0  0
  9 10  4  0  0  0  0
  7 11  4  0  0  0  0
 10 11  4  0  0  0  0
 10 12  1  0  0  0  0
  1 13  1  0  0  0  0
  4 14  1  0  0  0  0
  4 15  1  0  0  0  0
  5 16  1  0  0  0  0
  5 17  1  0  0  0  0
  6 18  1  0  0  0  0
  6 19  1  0  0  0  0
  8 20  1  0  0  0  0
  9 21  1  0  0  0  0
 11 22  1  0  0  0  0
 12 23  1  0  0  0  0
 12 24  1  0  0  0  0
 12 25  1  0  0  0  0
M  CHG  1   1   1
M  END
