31

C          1.26651       -0.08615        1.00589
C          0.68084        1.27920        0.78590
C         -0.68160        1.50485        0.97084
C         -1.21133        2.76730        0.72765
N         -0.42563        3.77405        0.28080
C          0.90344        3.58009        0.11376
C          1.47624        2.33442        0.34500
C         -1.00201        5.11926        0.07333
N         -1.50842        5.37333       -1.25857
C         -2.75683        4.71745       -1.65891
C         -2.56558        3.44106       -2.49457
O         -1.68956        3.66835       -3.59844
C         -0.41344        4.14040       -3.16638
C         -0.54611        5.44375       -2.36193
H          1.15005       -0.69231        0.10224
H          0.76939       -0.59123        1.84065
H          2.33156       -0.02136        1.25210
H         -1.33421        0.70127        1.30889
H         -2.26613        2.97808        0.87872
H          1.50103        4.42580       -0.21446
H          2.54410        2.19362        0.18453
H         -1.79025        5.25771        0.82434
H         -0.22680        5.85083        0.33471
H         -3.30537        5.43885       -2.27859
H         -3.40092        4.51483       -0.79581
H         -2.17033        2.61733       -1.89262
H         -3.53066        3.11760       -2.89778
H          0.19425        4.31903       -4.05925
H          0.07874        3.35314       -2.58701
H         -0.90849        6.22104       -3.04728
H          0.43738        5.78321       -2.01844
