34

C          0.27708        2.54310        0.28331
C          0.08787        1.83922       -0.83571
O         -0.52433        0.63800       -1.02091
C         -1.22409        0.02319        0.05665
C         -1.22912       -1.50680       -0.13346
N          0.15844       -2.20767        0.07271
C          0.77889       -1.81784        1.46331
C         -0.10624       -2.13787        2.65928
C         -0.02348       -3.74775        0.08645
C         -0.40953       -4.38035       -1.23556
C          1.22981       -1.75524       -0.96625
C          0.81236       -1.73340       -2.42927
H         -0.06486        2.24266        1.26465
H          0.81085        3.49006        0.23261
H          0.46396        2.19734       -1.79161
H         -0.82168        0.28072        1.03743
H         -2.25931        0.38305        0.02464
H         -1.91775       -1.96485        0.58414
H         -1.57626       -1.76879       -1.13541
H          1.73024       -2.35698        1.54601
H          1.00783       -0.74781        1.43730
H         -0.27185       -3.21190        2.77636
H          0.38758       -1.79333        3.57461
H         -1.07562       -1.63594        2.61228
H          0.91607       -4.18357        0.44518
H         -0.80915       -3.96531        0.81665
H          0.46155       -4.49726       -1.88461
H         -0.78350       -5.39439       -1.05417
H         -1.19337       -3.83496       -1.76463
H          1.54680       -0.74867       -0.67495
H          2.09430       -2.41602       -0.83122
H         -0.15418       -1.26417       -2.61410
H          1.55391       -1.15765       -2.99587
H          0.80326       -2.72502       -2.88033
