 xtb: 6.7.1 (edcfbbe)
          12202407193D

 21 21  0     0  0            999 V2000
    0.6720   -0.3675   -0.1556 C   0  0  0  0  0  0  0  0  0  0  0  0
    0.1934   -1.0163    1.0254 O   0  0  0  0  0  0  0  0  0  0  0  0
    1.0768   -1.6921    1.7300 C   0  0  0  0  0  0  0  0  0  0  0  0
    2.2460   -1.8185    1.4866 O   0  0  0  0  0  0  0  0  0  0  0  0
    0.4516   -2.3254    2.9538 C   0  0  0  0  0  0  0  0  0  0  0  0
   -0.9003   -2.2231    3.2745 C   0  0  0  0  0  0  0  0  0  0  0  0
   -1.3519   -2.8494    4.4283 C   0  0  0  0  0  0  0  0  0  0  0  0
   -0.4607   -3.5481    5.2198 C   0  0  0  0  0  0  0  0  0  0  0  0
    0.8341   -3.6349    4.8948 N   0  0  0  0  0  0  0  0  0  0  0  0
    1.2910   -3.0425    3.7894 C   0  0  0  0  0  0  0  0  0  0  0  0
    1.7618   -4.3666    5.7277 C   0  0  0  0  0  0  0  0  0  0  0  0
   -0.1058    0.3294   -0.4550 H   0  0  0  0  0  0  0  0  0  0  0  0
    0.8451   -1.1057   -0.9399 H   0  0  0  0  0  0  0  0  0  0  0  0
    1.6061    0.1557    0.0531 H   0  0  0  0  0  0  0  0  0  0  0  0
   -1.5690   -1.6680    2.6352 H   0  0  0  0  0  0  0  0  0  0  0  0
   -2.3900   -2.7973    4.7161 H   0  0  0  0  0  0  0  0  0  0  0  0
   -0.7833   -4.0444    6.1236 H   0  0  0  0  0  0  0  0  0  0  0  0
    2.3427   -3.1276    3.5458 H   0  0  0  0  0  0  0  0  0  0  0  0
    2.2175   -5.1778    5.1582 H   0  0  0  0  0  0  0  0  0  0  0  0
    2.5583   -3.7053    6.0715 H   0  0  0  0  0  0  0  0  0  0  0  0
    1.2541   -4.7859    6.5932 H   0  0  0  0  0  0  0  0  0  0  0  0
  1  2  1  0  0  0  0
  2  3  1  0  0  0  0
  3  4  2  0  0  0  0
  3  5  1  0  0  0  0
  5  6  4  0  0  0  0
  6  7  4  0  0  0  0
  7  8  4  0  0  0  0
  8  9  4  0  0  0  0
  5 10  4  0  0  0  0
  9 10  4  0  0  0  0
  9 11  1  0  0  0  0
  1 12  1  0  0  0  0
  1 13  1  0  0  0  0
  1 14  1  0  0  0  0
  6 15  1  0  0  0  0
  7 16  1  0  0  0  0
  8 17  1  0  0  0  0
 10 18  1  0  0  0  0
 11 19  1  0  0  0  0
 11 20  1  0  0  0  0
 11 21  1  0  0  0  0
M  CHG  1   1   1
M  END
