59

C          1.14698        0.17335       -0.68272
C          1.11810       -1.34693       -0.64198
C          1.55730       -1.93219        0.70283
C          0.72281       -1.50450        1.91403
C         -0.77358       -1.81647        1.82392
C         -1.12924       -3.30146        1.69089
C         -0.66575       -4.20203        2.84273
C         -1.09749       -3.76524        4.24811
C         -2.60068       -3.53810        4.43651
C         -3.46670       -4.79861        4.33925
C         -3.40335       -5.73460        5.55334
C         -3.89288       -5.17983        6.90197
N         -5.41849       -5.26175        7.18259
C         -5.95360       -6.73180        6.99292
C         -5.20923       -7.79294        7.78916
C         -5.70127       -4.88642        8.67002
C         -5.31022       -3.48050        9.09101
C         -6.29172       -4.41749        6.21847
C         -5.92594       -2.95105        6.06976
H          0.40403        0.60751       -0.00719
H          0.92015        0.52652       -1.69382
H          2.13405        0.55549       -0.40402
H          0.11501       -1.70082       -0.90362
H          1.79155       -1.72815       -1.41913
H          1.55609       -3.02580        0.62643
H          2.60015       -1.64465        0.88760
H          1.14255       -1.97766        2.80948
H          0.84198       -0.42561        2.07079
H         -1.26493       -1.40028        2.71096
H         -1.20894       -1.27798        0.97397
H         -2.21760       -3.38744        1.58556
H         -0.71574       -3.69419        0.75437
H         -1.02766       -5.21941        2.65222
H          0.42873       -4.27208        2.82532
H         -0.74142       -4.50775        4.97156
H         -0.57740       -2.83370        4.50210
H         -2.74973       -3.04798        5.40272
H         -2.95845       -2.81830        3.69226
H         -4.49814       -4.49377        4.15569
H         -3.17825       -5.37046        3.44954
H         -3.91321       -6.66764        5.29975
H         -2.35245       -6.02121        5.68932
H         -3.41577       -5.75221        7.70617
H         -3.57683       -4.14738        7.04348
H         -7.01075       -6.72021        7.28452
H         -5.91056       -6.96271        5.92364
H         -5.30391       -7.64942        8.86817
H         -5.64041       -8.77513        7.56511
H         -4.14897       -7.84542        7.53156
H         -6.76968       -5.05108        8.84831
H         -5.13273       -5.58935        9.28564
H         -6.00500       -2.73028        8.71311
H         -5.36217       -3.41001       10.18379
H         -4.29266       -3.20891        8.80487
H         -6.24233       -4.90872        5.24213
H         -7.32783       -4.50622        6.56721
H         -4.87542       -2.72282        6.23898
H         -6.17264       -2.61827        5.05488
H         -6.52834       -2.32773        6.73587
