63

C          1.09560       -0.62343        0.19829
C          1.12399        0.32203        1.38932
C          1.53509        1.75106        1.02441
C          0.61063        2.47534        0.03881
C         -0.85195        2.60652        0.47775
C         -1.07619        3.33917        1.80474
C         -0.61118        4.79997        1.83501
C         -1.31893        5.74247        0.85216
C         -2.84720        5.80511        0.97218
C         -3.37975        6.18627        2.35707
C         -3.06994        7.61865        2.80931
C         -3.71665        8.75481        1.99670
C         -5.22789        8.67550        1.75231
N         -6.12698        9.26227        2.85860
C         -6.00442       10.80376        2.99574
C         -5.96539       11.66591        1.75578
C         -4.86914       12.52702        1.55864
C         -4.82221       13.39624        0.46643
C         -5.86361       13.41405       -0.45419
C         -6.96141       12.57866       -0.27145
C         -7.02174       11.72658        0.83557
C         -7.57226        8.87156        2.52882
C         -5.82640        8.65849        4.22926
H          0.31662       -0.34473       -0.51723
H          0.88741       -1.64456        0.53391
H          2.05875       -0.62878       -0.32183
H          0.14692        0.31761        1.88423
H          1.84218       -0.06608        2.12193
H          1.61720        2.33802        1.94666
H          2.54446        1.72760        0.59424
H          1.02279        3.47297       -0.15356
H          0.63696        1.95714       -0.92731
H         -1.40994        3.11359       -0.31811
H         -1.29558        1.60666        0.55474
H         -2.14307        3.29001        2.05168
H         -0.56790        2.79623        2.61018
H         -0.74035        5.18226        2.85457
H          0.46755        4.84443        1.64460
H         -0.90607        6.74997        0.98198
H         -1.06418        5.44929       -0.17346
H         -3.23058        6.50778        0.22317
H         -3.26414        4.82827        0.69890
H         -4.46126        6.01583        2.37670
H         -2.97641        5.49470        3.10556
H         -3.35685        7.70536        3.86039
H         -1.98391        7.77174        2.80129
H         -3.44774        9.71332        2.45296
H         -3.23302        8.75690        1.01100
H         -5.47405        9.21863        0.83333
H         -5.55522        7.64392        1.59376
H         -6.83012       11.13501        3.63875
H         -5.08450       10.97370        3.56887
H         -4.04392       12.55819        2.26888
H         -3.97855       14.07256        0.34056
H         -5.82979       14.09349       -1.30345
H         -7.78338       12.61004       -0.98413
H         -7.92711       11.14289        0.96228
H         -7.68636        7.79669        2.70485
H         -8.24884        9.43131        3.18110
H         -7.77125        9.08140        1.47696
H         -5.81814        7.56885        4.13806
H         -4.86308        9.03411        4.58123
H         -6.60994        8.97612        4.92498
