34

C          0.80598       -0.03427       -0.03291
C          0.31890        0.55823        1.30084
N          0.90951        1.92035        1.48248
C          0.24346        3.11347        1.75935
C          1.19353        4.08612        1.89325
N          2.41627        3.47753        1.68287
C          2.23251        2.17217        1.45849
C          3.72511        4.13172        1.80032
C          4.18467        4.04552        3.23762
C          5.09613        3.06830        3.63542
C          5.45947        2.99823        4.97754
C          4.90992        3.89828        5.88235
C          4.00749        4.83428        5.40927
N          3.62413        4.91904        4.11465
C         -1.21885        0.58401        1.27817
C          0.77462       -0.33927        2.46346
H          0.53488        0.61921       -0.86958
H          0.36774       -1.02176       -0.21517
H          1.89482       -0.14992       -0.04932
H         -0.82924        3.13280        1.84597
H          1.16123        5.13653        2.12986
H          3.01636        1.44240        1.29641
H          4.43131        3.64462        1.11945
H          3.63192        5.17975        1.49430
H          5.53028        2.37122        2.92594
H          6.17250        2.25106        5.31842
H          5.18222        3.87322        6.93265
H          3.55662        5.56204        6.07942
H         -1.62998       -0.41954        1.11913
H         -1.62624        0.95708        2.22431
H         -1.59264        1.22682        0.47346
H          0.35299       -1.34691        2.38075
H          1.86551       -0.43519        2.49030
H          0.46281        0.08342        3.42520
