17

N          1.39035        0.50304        0.35748
N          2.36849        0.14578       -0.10564
N          3.43310       -0.25577       -0.60687
C          4.10142        0.72642       -1.25673
N          3.73818        1.96120       -1.40753
N          4.74083        2.53964       -2.13660
C          5.69383        1.65230       -2.42972
N          5.31986        0.49562       -1.87619
C          6.03471       -0.76063       -1.93952
C          4.63925        3.93633       -2.50214
H          6.59170        1.83895       -3.00632
H          5.65295       -1.34373       -2.78168
H          7.10074       -0.56548       -2.08581
H          5.90417       -1.32042       -1.00977
H          5.63089        4.39304       -2.44720
H          4.25891        4.00599       -3.52438
H          3.96409        4.46009       -1.82011
