86

C          1.20690        0.59676       -0.83869
C          1.33849       -0.91060       -0.99314
C          1.67078       -1.62906        0.31742
C          0.63026       -1.47596        1.43262
C         -0.78172       -1.95539        1.07887
C         -0.88655       -3.43498        0.69241
C         -0.47239       -4.42272        1.78957
C         -1.29612       -4.34181        3.07999
C         -2.79724       -4.59508        2.90386
C         -3.15706       -5.99079        2.38093
C         -2.75457       -7.15190        3.29968
C         -3.31610       -7.08221        4.72601
C         -4.84176       -6.97173        4.81147
C         -5.59703       -8.21794        4.33792
C         -5.49861       -9.43989        5.26244
C         -5.95855       -9.25964        6.71479
N         -7.47627       -9.38393        6.97381
C         -8.07300      -10.74259        6.54813
C         -7.44354      -11.99773        7.16590
C         -7.85535      -12.38320        8.59431
C         -9.36329      -12.44949        8.85781
C        -10.07365      -13.61029        8.15495
C         -9.89588      -14.97366        8.83837
C        -10.48425      -15.07433       10.24619
C        -11.97842      -14.86467       10.24879
O        -12.79516      -15.74740       10.03660
O        -12.27032      -13.54891       10.45448
C        -13.66442      -13.24070       10.38406
C         -7.70286       -9.10965        8.46598
C         -8.26257       -8.29543        6.23057
H          0.35132        0.86344       -0.21134
H          1.05761        1.06365       -1.81746
H          2.11020        1.02537       -0.39320
H          0.41976       -1.31564       -1.43100
H          2.13950       -1.11773       -1.71300
H          1.82543       -2.69332        0.10448
H          2.63281       -1.25580        0.69055
H          0.98829       -2.01359        2.31856
H          0.57478       -0.42320        1.73404
H         -1.44272       -1.74979        1.92891
H         -1.17539       -1.35074        0.25357
H         -1.91793       -3.64201        0.38411
H         -0.27562       -3.62556       -0.19740
H         -0.53102       -5.43912        1.38315
H          0.58382       -4.27016        2.03981
H         -0.88569       -5.05714        3.80214
H         -1.16023       -3.35532        3.53830
H         -3.29490       -4.42165        3.86492
H         -3.21986       -3.84681        2.22369
H         -4.23818       -6.02777        2.20228
H         -2.69948       -6.14719        1.39737
H         -3.06866       -8.09111        2.82953
H         -1.66106       -7.20617        3.35891
H         -2.97414       -7.96166        5.28348
H         -2.87665       -6.21985        5.24118
H         -5.11966       -6.72614        5.84085
H         -5.18277       -6.11501        4.21994
H         -6.64152       -7.94385        4.18177
H         -5.23608       -8.51083        3.34512
H         -6.01117      -10.28286        4.78987
H         -4.44284       -9.73836        5.29629
H         -5.48016      -10.02456        7.33607
H         -5.64583       -8.29528        7.12569
H         -9.15000      -10.69127        6.73535
H         -7.95945      -10.79732        5.45977
H         -7.71780      -12.83801        6.51459
H         -6.35137      -11.95558        7.11186
H         -7.40415      -13.35513        8.82875
H         -7.40873      -11.68915        9.30939
H         -9.52332      -12.50663        9.93917
H         -9.83892      -11.51211        8.55462
H        -11.14293      -13.37861        8.08911
H         -9.73096      -13.68926        7.11740
H        -10.37181      -15.73256        8.20435
H         -8.83094      -15.22881        8.88011
H        -10.29514      -16.07413       10.65537
H        -10.01111      -14.37843       10.94629
H        -14.13283      -13.69888        9.50676
H        -14.16203      -13.56162       11.30323
H        -13.76380      -12.15540       10.29089
H         -7.51610       -8.04666        8.65217
H         -8.73669       -9.35933        8.71744
H         -6.99242       -9.69776        9.04763
H         -7.74953       -7.33886        6.36352
H         -8.33769       -8.57000        5.17691
H         -9.27053       -8.24744        6.65582
