35

F         -0.00500       -0.01900        1.31100
S          0.00100       -0.00600       -0.27500
C          0.72041        1.65399       -0.32971
C         -0.29718        2.66408        0.17490
C         -0.68081        2.32506        1.60609
C          0.55728        2.36998        2.48671
C          1.16143        3.76400        2.44077
C          0.14384        4.77409        2.94538
N         -0.22717        4.44623        4.32949
C          0.02369        3.13793        4.82911
C         -0.52412        2.75540        6.06448
C         -1.01611        3.65497        6.86466
C         -0.99102        5.00789        6.50078
C         -0.72695        5.36616        5.15640
F          0.23144        3.88385        0.13470
F         -1.38051        2.62478       -0.59564
F          1.80374        1.69329        0.44083
F          1.05608        1.95063       -1.58200
F          1.45700       -0.60400       -0.20600
F         -0.61700       -1.43200       -0.22800
F         -1.44900        0.61600       -0.20300
F          0.61300        1.45000       -0.20900
H         -1.39714        3.03611        1.96131
H         -1.10610        1.34374        1.63843
H          0.28723        2.13133        3.49419
H          1.27361        1.65893        2.13149
H          2.03298        3.79562        3.06068
H          1.43148        4.00265        1.43329
H          0.56912        5.75541        2.91304
H         -0.72771        4.74247        2.32547
H          0.62407        2.45188        4.26896
H         -0.53671        1.72357        6.34743
H         -1.44057        3.36155        7.80202
H         -1.17033        5.76587        7.23441
H         -0.92508        6.35875        4.80940
