60

C          0.54761        0.01534        0.13442
N          0.24244        1.43478        0.00506
C         -1.00809        1.97152       -0.24740
C         -0.85158        3.32790       -0.28741
N          0.48812        3.58742       -0.03651
C          1.14303        2.42560        0.09790
C          1.12259        4.90680       -0.04413
C          1.73661        5.26374        1.28724
C          3.04269        4.82706        1.58883
C          3.64712        5.18553        2.79878
C          3.09828        6.24206        3.53192
C          1.79501        6.65690        3.26894
C          1.05038        6.02007        2.26533
C         -0.46020        5.92969        2.46402
C         -0.92107        5.13845        3.75003
C          0.07363        4.10564        4.26030
C          0.39471        2.99016        3.49107
C          1.67251        2.43929        3.59153
C          2.62726        3.00728        4.45860
C          4.09131        2.93630        4.01876
C          4.68042        4.28457        3.46177
C          2.17793        3.86921        5.47753
C          0.88651        4.41597        5.36363
C          3.07825        4.35492        6.54894
N          4.27602        3.93079        6.80335
C          4.73176        4.79977        7.90669
C          3.45223        5.44255        8.42322
O          2.55376        5.33712        7.32424
C          5.42289        3.95304        8.96920
C          5.69967        5.83772        7.33091
H          0.29799       -0.49053       -0.80194
H         -0.04204       -0.40283        0.95459
H          1.61133       -0.11825        0.34827
H         -1.84988        1.31189       -0.37161
H         -1.52671        4.14844       -0.46104
H          2.20697        2.29973        0.25576
H          1.89430        4.90155       -0.82404
H          0.39141        5.66634       -0.34425
H          3.55742        4.12534        0.93842
H          3.58616        6.60002        4.43747
H          1.30933        7.31870        3.98498
H         -0.92364        5.45342        1.59628
H         -0.88093        6.94262        2.49671
H         -1.11820        5.86734        4.54707
H         -1.88390        4.65238        3.54978
H         -0.27003        2.66476        2.69886
H          1.97745        1.68602        2.87183
H          4.72551        2.53995        4.81796
H          4.17309        2.19268        3.21361
H          5.15775        4.83189        4.28363
H          5.48453        4.06244        2.74950
H          0.58660        5.22408        6.02880
H          3.01301        4.90821        9.27311
H          3.57856        6.49405        8.69917
H          4.75805        3.16612        9.34321
H          6.31038        3.45622        8.56107
H          5.73663        4.56564        9.82112
H          6.56741        5.35259        6.86969
H          5.22000        6.44642        6.55600
H          6.06323        6.51382        8.11226
