 xtb: 6.7.1 (edcfbbe)
          12202407193D

 41 40  0     0  0            999 V2000
    1.2278   -0.0463   -0.5792 C   0  0  0  0  0  0  0  0  0  0  0  0
    0.9822    0.1629    0.9104 C   0  0  0  0  0  0  0  0  0  0  0  0
    1.3335    1.5728    1.3886 C   0  0  0  0  0  0  0  0  0  0  0  0
    0.5397    2.6979    0.7207 C   0  0  0  0  0  0  0  0  0  0  0  0
   -0.9792    2.5946    0.8736 C   0  0  0  0  0  0  0  0  0  0  0  0
   -1.4813    2.5853    2.3187 C   0  0  0  0  0  0  0  0  0  0  0  0
   -1.1095    3.8188    3.1463 C   0  0  0  0  0  0  0  0  0  0  0  0
   -1.5320    5.1622    2.5373 C   0  0  0  0  0  0  0  0  0  0  0  0
   -3.0320    5.3193    2.2635 C   0  0  0  0  0  0  0  0  0  0  0  0
   -3.8414    6.0193    3.3112 N   0  0  0  0  0  0  0  0  0  0  0  0
   -3.4824    7.4475    3.3759 C   0  0  0  0  0  0  0  0  0  0  0  0
   -5.2651    5.9098    2.9370 C   0  0  0  0  0  0  0  0  0  0  0  0
   -3.6525    5.4045    4.6359 C   0  0  0  0  0  0  0  0  0  0  0  0
    0.5462    0.5496   -1.1812 H   0  0  0  0  0  0  0  0  0  0  0  0
    1.0798   -1.0913   -0.8398 H   0  0  0  0  0  0  0  0  0  0  0  0
    2.2475    0.2284   -0.8385 H   0  0  0  0  0  0  0  0  0  0  0  0
   -0.0599   -0.0647    1.1437 H   0  0  0  0  0  0  0  0  0  0  0  0
    1.5988   -0.5434    1.4704 H   0  0  0  0  0  0  0  0  0  0  0  0
    1.1976    1.6199    2.4716 H   0  0  0  0  0  0  0  0  0  0  0  0
    2.3928    1.7508    1.1906 H   0  0  0  0  0  0  0  0  0  0  0  0
    0.8882    3.6508    1.1265 H   0  0  0  0  0  0  0  0  0  0  0  0
    0.7689    2.7059   -0.3457 H   0  0  0  0  0  0  0  0  0  0  0  0
   -1.4416    3.4201    0.3258 H   0  0  0  0  0  0  0  0  0  0  0  0
   -1.3189    1.6740    0.3980 H   0  0  0  0  0  0  0  0  0  0  0  0
   -2.5670    2.4500    2.3057 H   0  0  0  0  0  0  0  0  0  0  0  0
   -1.0703    1.7140    2.8286 H   0  0  0  0  0  0  0  0  0  0  0  0
   -1.5251    3.6962    4.1479 H   0  0  0  0  0  0  0  0  0  0  0  0
   -0.0254    3.8464    3.2565 H   0  0  0  0  0  0  0  0  0  0  0  0
   -1.1601    5.9681    3.1706 H   0  0  0  0  0  0  0  0  0  0  0  0
   -1.0182    5.2655    1.5815 H   0  0  0  0  0  0  0  0  0  0  0  0
   -3.1753    5.8812    1.3386 H   0  0  0  0  0  0  0  0  0  0  0  0
   -3.4654    4.3281    2.1218 H   0  0  0  0  0  0  0  0  0  0  0  0
   -3.6684    7.9257    2.4159 H   0  0  0  0  0  0  0  0  0  0  0  0
   -4.0782    7.9481    4.1371 H   0  0  0  0  0  0  0  0  0  0  0  0
   -2.4312    7.5695    3.6263 H   0  0  0  0  0  0  0  0  0  0  0  0
   -5.5790    4.8673    2.9411 H   0  0  0  0  0  0  0  0  0  0  0  0
   -5.8831    6.4607    3.6441 H   0  0  0  0  0  0  0  0  0  0  0  0
   -5.4283    6.3187    1.9414 H   0  0  0  0  0  0  0  0  0  0  0  0
   -3.8711    4.3394    4.5873 H   0  0  0  0  0  0  0  0  0  0  0  0
   -2.6292    5.5420    4.9764 H   0  0  0  0  0  0  0  0  0  0  0  0
   -4.3229    5.8661    5.3594 H   0  0  0  0  0  0  0  0  0  0  0  0
  1  2  1  0  0  0  0
  2  3  1  0  0  0  0
  3  4  1  0  0  0  0
  4  5  1  0  0  0  0
  5  6  1  0  0  0  0
  6  7  1  0  0  0  0
  7  8  1  0  0  0  0
  8  9  1  0  0  0  0
  9 10  1  0  0  0  0
 10 11  1  0  0  0  0
 10 12  1  0  0  0  0
 10 13  1  0  0  0  0
  1 14  1  0  0  0  0
  1 15  1  0  0  0  0
  1 16  1  0  0  0  0
  2 17  1  0  0  0  0
  2 18  1  0  0  0  0
  3 19  1  0  0  0  0
  3 20  1  0  0  0  0
  4 21  1  0  0  0  0
  4 22  1  0  0  0  0
  5 23  1  0  0  0  0
  5 24  1  0  0  0  0
  6 25  1  0  0  0  0
  6 26  1  0  0  0  0
  7 27  1  0  0  0  0
  7 28  1  0  0  0  0
  8 29  1  0  0  0  0
  8 30  1  0  0  0  0
  9 31  1  0  0  0  0
  9 32  1  0  0  0  0
 11 33  1  0  0  0  0
 11 34  1  0  0  0  0
 11 35  1  0  0  0  0
 12 36  1  0  0  0  0
 12 37  1  0  0  0  0
 12 38  1  0  0  0  0
 13 39  1  0  0  0  0
 13 40  1  0  0  0  0
 13 41  1  0  0  0  0
M  CHG  1   1   1
M  END
