54

C          1.62448        0.59839        0.91942
N          0.72656        1.78562        0.54978
C          0.24994        2.39902        1.89316
C         -0.46360        3.73366        1.70530
C          0.36956        4.72465        0.90514
C          0.84135        4.12433       -0.41179
C          1.58912        2.81739       -0.19018
C         -0.50955        1.30352       -0.25329
C         -0.26197        0.77827       -1.67555
C          0.32267       -0.62812       -1.85020
C         -0.45316       -1.75919       -1.16785
C         -1.79763       -2.10290       -1.81951
C         -1.71048       -2.68618       -3.23665
C         -0.83817       -3.93914       -3.38558
C         -1.23822       -5.12700       -2.50364
C         -2.63972       -5.69055       -2.76057
C         -2.88715       -6.21665       -4.17691
C         -1.96359       -7.36022       -4.56880
H          0.99633       -0.21523        1.29087
H          2.32745        0.91658        1.69588
H          2.19910        0.30300        0.04249
H          1.14073        2.54684        2.51555
H         -0.39940        1.66244        2.38018
H         -0.67972        4.16209        2.69150
H         -1.43564        3.58977        1.22247
H         -0.21425        5.63203        0.71359
H          1.24098        5.02827        1.49857
H         -0.01132        3.97448       -1.08282
H          1.50657        4.83749       -0.91264
H          1.92386        2.37620       -1.13341
H          2.47735        2.99315        0.42954
H         -1.02846        0.56802        0.36949
H         -1.17725        2.16498       -0.34129
H         -1.23578        0.78455       -2.18361
H          0.34717        1.48654       -2.24589
H          0.39653       -0.83395       -2.92463
H          1.35537       -0.65126       -1.49978
H          0.18096       -2.65264       -1.15048
H         -0.62692       -1.51442       -0.11523
H         -2.32157       -2.81750       -1.17354
H         -2.43253       -1.20963       -1.84692
H         -2.72674       -2.91022       -3.58243
H         -1.33153       -1.91862       -3.92170
H         -0.84489       -4.24610       -4.43799
H          0.20508       -3.68144       -3.16781
H         -0.49710       -5.92401       -2.63673
H         -1.16816       -4.83997       -1.44793
H         -2.81727       -6.50592       -2.04775
H         -3.39057       -4.92472       -2.53405
H         -3.92299       -6.57232       -4.23559
H         -2.79774       -5.40613       -4.90809
H         -2.01717       -8.17580       -3.84061
H         -2.25310       -7.75974       -5.54603
H         -0.92352       -7.02928       -4.64249
