 xtb: 6.7.1 (edcfbbe)
          12202407193D

 35 34  0     0  0            999 V2000
    0.7599   -0.3985    0.7237 F   0  0  0  0  0  0  0  0  0  0  0  0
   -0.3950   -1.0354   -0.2424 S   0  0  0  0  0  0  0  0  0  0  0  0
    0.7126    2.5252   -0.9011 C   0  0  0  0  0  0  0  0  0  0  0  0
   -0.2016    3.5244   -0.1387 C   0  0  0  0  0  0  0  0  0  0  0  0
   -0.8369    3.0185    1.1499 C   0  0  0  0  0  0  0  0  0  0  0  0
    0.1157    2.4740    2.2185 C   0  0  0  0  0  0  0  0  0  0  0  0
    1.1945    3.4355    2.7173 C   0  0  0  0  0  0  0  0  0  0  0  0
    0.6579    4.6727    3.4525 C   0  0  0  0  0  0  0  0  0  0  0  0
    0.0612    4.2994    4.7232 N   0  0  0  0  0  0  0  0  0  0  0  0
    0.8553    4.0911    5.7803 C   0  0  0  0  0  0  0  0  0  0  0  0
    0.3417    3.6747    6.9904 C   0  0  0  0  0  0  0  0  0  0  0  0
   -1.0264    3.4620    7.1106 C   0  0  0  0  0  0  0  0  0  0  0  0
   -1.8334    3.6800    6.0020 C   0  0  0  0  0  0  0  0  0  0  0  0
   -1.2571    4.0992    4.8196 C   0  0  0  0  0  0  0  0  0  0  0  0
    0.5374    4.6460    0.0843 F   0  0  0  0  0  0  0  0  0  0  0  0
   -1.1777    3.8974   -0.9973 F   0  0  0  0  0  0  0  0  0  0  0  0
    1.8150    2.2481   -0.2129 F   0  0  0  0  0  0  0  0  0  0  0  0
    1.0701    2.9912   -2.0829 F   0  0  0  0  0  0  0  0  0  0  0  0
    0.7497   -2.0639   -0.8828 F   0  0  0  0  0  0  0  0  0  0  0  0
   -0.8796   -2.1936    0.7700 F   0  0  0  0  0  0  0  0  0  0  0  0
   -1.4854    0.0343    0.5600 F   0  0  0  0  0  0  0  0  0  0  0  0
    0.0706    1.3497   -1.1128 F   0  0  0  0  0  0  0  0  0  0  0  0
   -1.4275    3.8593    1.5221 H   0  0  0  0  0  0  0  0  0  0  0  0
   -1.5327    2.2251    0.8731 H   0  0  0  0  0  0  0  0  0  0  0  0
   -0.5041    2.1376    3.0525 H   0  0  0  0  0  0  0  0  0  0  0  0
    0.6164    1.5874    1.8355 H   0  0  0  0  0  0  0  0  0  0  0  0
    1.8578    2.8830    3.3850 H   0  0  0  0  0  0  0  0  0  0  0  0
    1.8011    3.7868    1.8846 H   0  0  0  0  0  0  0  0  0  0  0  0
    1.4837    5.3609    3.6405 H   0  0  0  0  0  0  0  0  0  0  0  0
   -0.0820    5.1874    2.8397 H   0  0  0  0  0  0  0  0  0  0  0  0
    1.9125    4.2682    5.6461 H   0  0  0  0  0  0  0  0  0  0  0  0
    1.0044    3.5216    7.8270 H   0  0  0  0  0  0  0  0  0  0  0  0
   -1.4528    3.1373    8.0466 H   0  0  0  0  0  0  0  0  0  0  0  0
   -2.8999    3.5292    6.0506 H   0  0  0  0  0  0  0  0  0  0  0  0
   -1.8564    4.2896    3.9421 H   0  0  0  0  0  0  0  0  0  0  0  0
  1  2  1  0  0  0  0
  3  4  1  0  0  0  0
  4  5  1  0  0  0  0
  5  6  1  0  0  0  0
  6  7  1  0  0  0  0
  7  8  1  0  0  0  0
  8  9  1  0  0  0  0
  9 10  4  0  0  0  0
 10 11  4  0  0  0  0
 11 12  4  0  0  0  0
 12 13  4  0  0  0  0
  9 14  4  0  0  0  0
 13 14  4  0  0  0  0
  4 15  1  0  0  0  0
  4 16  1  0  0  0  0
  3 17  1  0  0  0  0
  3 18  1  0  0  0  0
  2 19  1  0  0  0  0
  2 20  1  0  0  0  0
  2 21  1  0  0  0  0
  3 22  1  0  0  0  0
  5 23  1  0  0  0  0
  5 24  1  0  0  0  0
  6 25  1  0  0  0  0
  6 26  1  0  0  0  0
  7 27  1  0  0  0  0
  7 28  1  0  0  0  0
  8 29  1  0  0  0  0
  8 30  1  0  0  0  0
 10 31  1  0  0  0  0
 11 32  1  0  0  0  0
 12 33  1  0  0  0  0
 13 34  1  0  0  0  0
 14 35  1  0  0  0  0
M  CHG  1   1   1
M  END
