41

C          0.99868       -0.41849       -0.19850
C          0.91939        0.14480        1.21163
C          1.35808        1.60823        1.30923
C          0.51851        2.60721        0.50416
C         -0.98257        2.61471        0.81536
C         -1.34772        2.85904        2.28302
C         -0.90586        4.21132        2.85048
C         -1.51945        5.45106        2.18913
C         -3.04695        5.52470        2.07172
N         -3.81689        5.94385        3.33944
C         -3.36484        7.30755        3.85020
C         -5.30022        6.05451        2.95087
C         -3.71301        4.92205        4.46080
H          0.29437        0.08009       -0.87064
H          0.75174       -1.48507       -0.19093
H          2.00741       -0.30806       -0.60875
H         -0.09806        0.02164        1.59789
H          1.56960       -0.45372        1.86127
H          1.35967        1.90273        2.36534
H          2.40062        1.68771        0.97584
H          0.92745        3.61178        0.66590
H          0.64894        2.40746       -0.56632
H         -1.46542        3.37171        0.18615
H         -1.41697        1.65645        0.50634
H         -2.43141        2.74679        2.39627
H         -0.91193        2.06658        2.90246
H         -1.10904        4.21867        3.92336
H          0.18549        4.29319        2.77565
H         -1.12364        6.34509        2.68115
H         -1.12232        5.49951        1.16632
H         -3.29163        6.28391        1.31749
H         -3.47764        4.57900        1.72804
H         -3.40640        8.01994        3.02143
H         -4.04020        7.61612        4.65429
H         -2.34803        7.22248        4.24093
H         -5.63789        5.07448        2.60106
H         -5.87059        6.36247        3.83265
H         -5.39582        6.80294        2.15850
H         -3.89094        3.92676        4.04605
H         -2.72655        4.99707        4.91933
H         -4.46889        5.15749        5.21696
