 xtb: 6.7.1 (edcfbbe)
          12202407193D

 86 85  0     0  0            999 V2000
    1.2683    0.8020   -0.3523 C   0  0  0  0  0  0  0  0  0  0  0  0
    1.4966   -0.7015   -0.4545 C   0  0  0  0  0  0  0  0  0  0  0  0
    1.5715   -1.3950    0.9067 C   0  0  0  0  0  0  0  0  0  0  0  0
    0.3059   -1.2819    1.7590 C   0  0  0  0  0  0  0  0  0  0  0  0
   -0.9572   -1.8632    1.1213 C   0  0  0  0  0  0  0  0  0  0  0  0
   -0.8846   -3.3539    0.7841 C   0  0  0  0  0  0  0  0  0  0  0  0
   -0.5941   -4.2735    1.9724 C   0  0  0  0  0  0  0  0  0  0  0  0
   -1.5767   -4.1525    3.1387 C   0  0  0  0  0  0  0  0  0  0  0  0
   -3.0380   -4.4291    2.7819 C   0  0  0  0  0  0  0  0  0  0  0  0
   -3.3245   -5.8467    2.2827 C   0  0  0  0  0  0  0  0  0  0  0  0
   -3.0034   -6.9637    3.2790 C   0  0  0  0  0  0  0  0  0  0  0  0
   -3.6748   -6.8232    4.6474 C   0  0  0  0  0  0  0  0  0  0  0  0
   -5.1989   -6.6965    4.6020 C   0  0  0  0  0  0  0  0  0  0  0  0
   -5.9341   -7.9114    4.0326 C   0  0  0  0  0  0  0  0  0  0  0  0
   -5.7254   -9.2316    4.7893 C   0  0  0  0  0  0  0  0  0  0  0  0
   -5.8885   -9.2074    6.3122 C   0  0  0  0  0  0  0  0  0  0  0  0
   -7.2674   -9.3412    6.8815 N   0  0  0  0  0  0  0  0  0  0  0  0
   -7.8354  -10.7079    6.6565 C   0  0  0  0  0  0  0  0  0  0  0  0
   -7.2191  -11.8789    7.4286 C   0  0  0  0  0  0  0  0  0  0  0  0
   -7.7930  -12.1742    8.8228 C   0  0  0  0  0  0  0  0  0  0  0  0
   -9.3207  -12.2440    8.9067 C   0  0  0  0  0  0  0  0  0  0  0  0
   -9.9807  -13.2351    7.9464 C   0  0  0  0  0  0  0  0  0  0  0  0
   -9.6330  -14.7042    8.1950 C   0  0  0  0  0  0  0  0  0  0  0  0
  -10.1657  -15.2489    9.5185 C   0  0  0  0  0  0  0  0  0  0  0  0
  -11.6804  -15.2692    9.5737 C   0  0  0  0  0  0  0  0  0  0  0  0
  -12.4148  -14.9573    8.6737 O   0  0  0  0  0  0  0  0  0  0  0  0
  -12.0871  -15.6902   10.7723 O   0  0  0  0  0  0  0  0  0  0  0  0
  -13.4879  -15.8050   11.0051 C   0  0  0  0  0  0  0  0  0  0  0  0
   -7.1869   -9.0373    8.3218 C   0  0  0  0  0  0  0  0  0  0  0  0
   -8.1898   -8.3698    6.2655 C   0  0  0  0  0  0  0  0  0  0  0  0
    0.2856    1.0236    0.0564 H   0  0  0  0  0  0  0  0  0  0  0  0
    1.3348    1.2606   -1.3362 H   0  0  0  0  0  0  0  0  0  0  0  0
    2.0195    1.2581    0.2890 H   0  0  0  0  0  0  0  0  0  0  0  0
    0.7050   -1.1498   -1.0576 H   0  0  0  0  0  0  0  0  0  0  0  0
    2.4404   -0.8793   -0.9759 H   0  0  0  0  0  0  0  0  0  0  0  0
    1.8087   -2.4492    0.7490 H   0  0  0  0  0  0  0  0  0  0  0  0
    2.3987   -0.9590    1.4729 H   0  0  0  0  0  0  0  0  0  0  0  0
    0.4916   -1.7808    2.7128 H   0  0  0  0  0  0  0  0  0  0  0  0
    0.1206   -0.2295    1.9825 H   0  0  0  0  0  0  0  0  0  0  0  0
   -1.7949   -1.6864    1.8000 H   0  0  0  0  0  0  0  0  0  0  0  0
   -1.1763   -1.3183    0.2011 H   0  0  0  0  0  0  0  0  0  0  0  0
   -1.8311   -3.6466    0.3232 H   0  0  0  0  0  0  0  0  0  0  0  0
   -0.1063   -3.5137    0.0356 H   0  0  0  0  0  0  0  0  0  0  0  0
   -0.5832   -5.3049    1.6122 H   0  0  0  0  0  0  0  0  0  0  0  0
    0.4069   -4.0601    2.3521 H   0  0  0  0  0  0  0  0  0  0  0  0
   -1.2583   -4.8376    3.9281 H   0  0  0  0  0  0  0  0  0  0  0  0
   -1.5155   -3.1436    3.5507 H   0  0  0  0  0  0  0  0  0  0  0  0
   -3.6512   -4.2210    3.6622 H   0  0  0  0  0  0  0  0  0  0  0  0
   -3.3527   -3.7293    2.0064 H   0  0  0  0  0  0  0  0  0  0  0  0
   -4.3781   -5.9046    1.9979 H   0  0  0  0  0  0  0  0  0  0  0  0
   -2.7441   -6.0290    1.3772 H   0  0  0  0  0  0  0  0  0  0  0  0
   -3.2858   -7.9179    2.8270 H   0  0  0  0  0  0  0  0  0  0  0  0
   -1.9249   -6.9977    3.4402 H   0  0  0  0  0  0  0  0  0  0  0  0
   -3.3893   -7.6813    5.2619 H   0  0  0  0  0  0  0  0  0  0  0  0
   -3.2804   -5.9341    5.1412 H   0  0  0  0  0  0  0  0  0  0  0  0
   -5.5608   -6.4678    5.6094 H   0  0  0  0  0  0  0  0  0  0  0  0
   -5.4592   -5.8381    3.9831 H   0  0  0  0  0  0  0  0  0  0  0  0
   -6.9937   -7.6658    3.9538 H   0  0  0  0  0  0  0  0  0  0  0  0
   -5.5821   -8.0776    3.0142 H   0  0  0  0  0  0  0  0  0  0  0  0
   -6.3587   -9.9977    4.3397 H   0  0  0  0  0  0  0  0  0  0  0  0
   -4.6953   -9.5461    4.6132 H   0  0  0  0  0  0  0  0  0  0  0  0
   -5.3020  -10.0259    6.7325 H   0  0  0  0  0  0  0  0  0  0  0  0
   -5.4712   -8.2734    6.6903 H   0  0  0  0  0  0  0  0  0  0  0  0
   -8.8989  -10.6590    6.8918 H   0  0  0  0  0  0  0  0  0  0  0  0
   -7.7420  -10.9079    5.5882 H   0  0  0  0  0  0  0  0  0  0  0  0
   -7.3909  -12.7636    6.8138 H   0  0  0  0  0  0  0  0  0  0  0  0
   -6.1367  -11.7703    7.5097 H   0  0  0  0  0  0  0  0  0  0  0  0
   -7.3843  -13.1373    9.1300 H   0  0  0  0  0  0  0  0  0  0  0  0
   -7.4438  -11.4454    9.5553 H   0  0  0  0  0  0  0  0  0  0  0  0
   -9.5809  -12.5117    9.9311 H   0  0  0  0  0  0  0  0  0  0  0  0
   -9.7540  -11.2542    8.7350 H   0  0  0  0  0  0  0  0  0  0  0  0
  -11.0620  -13.1290    8.0311 H   0  0  0  0  0  0  0  0  0  0  0  0
   -9.7141  -12.9890    6.9163 H   0  0  0  0  0  0  0  0  0  0  0  0
  -10.0753  -15.2892    7.3874 H   0  0  0  0  0  0  0  0  0  0  0  0
   -8.5520  -14.8517    8.1611 H   0  0  0  0  0  0  0  0  0  0  0  0
   -9.8272  -16.2775    9.6580 H   0  0  0  0  0  0  0  0  0  0  0  0
   -9.8020  -14.6769   10.3729 H   0  0  0  0  0  0  0  0  0  0  0  0
  -14.0342  -15.6614   10.0716 H   0  0  0  0  0  0  0  0  0  0  0  0
  -13.6771  -16.7988   11.4078 H   0  0  0  0  0  0  0  0  0  0  0  0
  -13.7851  -15.0481   11.7317 H   0  0  0  0  0  0  0  0  0  0  0  0
   -6.9462   -7.9850    8.4667 H   0  0  0  0  0  0  0  0  0  0  0  0
   -8.1420   -9.2451    8.7997 H   0  0  0  0  0  0  0  0  0  0  0  0
   -6.4133   -9.6366    8.7949 H   0  0  0  0  0  0  0  0  0  0  0  0
   -7.7465   -7.3763    6.2742 H   0  0  0  0  0  0  0  0  0  0  0  0
   -8.4097   -8.6534    5.2397 H   0  0  0  0  0  0  0  0  0  0  0  0
   -9.1248   -8.3399    6.8233 H   0  0  0  0  0  0  0  0  0  0  0  0
  1  2  1  0  0  0  0
  2  3  1  0  0  0  0
  3  4  1  0  0  0  0
  4  5  1  0  0  0  0
  5  6  1  0  0  0  0
  6  7  1  0  0  0  0
  7  8  1  0  0  0  0
  8  9  1  0  0  0  0
  9 10  1  0  0  0  0
 10 11  1  0  0  0  0
 11 12  1  0  0  0  0
 12 13  1  0  0  0  0
 13 14  1  0  0  0  0
 14 15  1  0  0  0  0
 15 16  1  0  0  0  0
 16 17  1  0  0  0  0
 17 18  1  0  0  0  0
 18 19  1  0  0  0  0
 19 20  1  0  0  0  0
 20 21  1  0  0  0  0
 21 22  1  0  0  0  0
 22 23  1  0  0  0  0
 23 24  1  0  0  0  0
 24 25  1  0  0  0  0
 25 26  2  0  0  0  0
 25 27  1  0  0  0  0
 27 28  1  0  0  0  0
 17 29  1  0  0  0  0
 17 30  1  0  0  0  0
  1 31  1  0  0  0  0
  1 32  1  0  0  0  0
  1 33  1  0  0  0  0
  2 34  1  0  0  0  0
  2 35  1  0  0  0  0
  3 36  1  0  0  0  0
  3 37  1  0  0  0  0
  4 38  1  0  0  0  0
  4 39  1  0  0  0  0
  5 40  1  0  0  0  0
  5 41  1  0  0  0  0
  6 42  1  0  0  0  0
  6 43  1  0  0  0  0
  7 44  1  0  0  0  0
  7 45  1  0  0  0  0
  8 46  1  0  0  0  0
  8 47  1  0  0  0  0
  9 48  1  0  0  0  0
  9 49  1  0  0  0  0
 10 50  1  0  0  0  0
 10 51  1  0  0  0  0
 11 52  1  0  0  0  0
 11 53  1  0  0  0  0
 12 54  1  0  0  0  0
 12 55  1  0  0  0  0
 13 56  1  0  0  0  0
 13 57  1  0  0  0  0
 14 58  1  0  0  0  0
 14 59  1  0  0  0  0
 15 60  1  0  0  0  0
 15 61  1  0  0  0  0
 16 62  1  0  0  0  0
 16 63  1  0  0  0  0
 18 64  1  0  0  0  0
 18 65  1  0  0  0  0
 19 66  1  0  0  0  0
 19 67  1  0  0  0  0
 20 68  1  0  0  0  0
 20 69  1  0  0  0  0
 21 70  1  0  0  0  0
 21 71  1  0  0  0  0
 22 72  1  0  0  0  0
 22 73  1  0  0  0  0
 23 74  1  0  0  0  0
 23 75  1  0  0  0  0
 24 76  1  0  0  0  0
 24 77  1  0  0  0  0
 28 78  1  0  0  0  0
 28 79  1  0  0  0  0
 28 80  1  0  0  0  0
 29 81  1  0  0  0  0
 29 82  1  0  0  0  0
 29 83  1  0  0  0  0
 30 84  1  0  0  0  0
 30 85  1  0  0  0  0
 30 86  1  0  0  0  0
M  CHG  1   1   1
M  END
