 xtb: 6.7.1 (edcfbbe)
          12202407193D

 48 52  0     0  0            999 V2000
    1.8268    0.6454   -0.2225 C   0  0  0  0  0  0  0  0  0  0  0  0
    0.5940    0.4951   -1.1228 C   0  0  0  0  0  0  0  0  0  0  0  0
    0.9547   -0.0725   -2.4400 C   0  0  0  0  0  0  0  0  0  0  0  0
    0.7365   -1.3246   -2.8647 N   0  0  0  0  0  0  0  0  0  0  0  0
    0.1023   -2.2285   -2.0648 O   0  0  0  0  0  0  0  0  0  0  0  0
   -0.0675   -3.5358   -2.6037 C   0  0  0  0  0  0  0  0  0  0  0  0
   -1.0082   -3.5937   -3.7823 C   0  0  0  0  0  0  0  0  0  0  0  0
   -2.1162   -2.7528   -3.8257 C   0  0  0  0  0  0  0  0  0  0  0  0
   -2.9860   -2.8040   -4.8976 C   0  0  0  0  0  0  0  0  0  0  0  0
   -2.7435   -3.7098   -5.9204 C   0  0  0  0  0  0  0  0  0  0  0  0
   -1.6522   -4.5661   -5.8838 C   0  0  0  0  0  0  0  0  0  0  0  0
   -0.7802   -4.4995   -4.8135 C   0  0  0  0  0  0  0  0  0  0  0  0
   -3.6513   -3.7591   -7.0560 N   0  0  0  0  0  0  0  0  0  0  0  0
   -4.5405   -2.9419   -7.0814 O   0  0  0  0  0  0  0  0  0  0  0  0
   -3.4398   -4.6030   -7.8924 O   0  0  0  0  0  0  0  0  0  0  0  0
    1.2305   -1.4797   -4.1189 C   0  0  0  0  0  0  0  0  0  0  0  0
    1.7795   -0.2811   -4.4777 C   0  0  0  0  0  0  0  0  0  0  0  0
    1.5999    0.5609   -3.4294 N   0  0  0  0  0  0  0  0  0  0  0  0
    1.9730    1.8641   -3.2879 O   0  0  0  0  0  0  0  0  0  0  0  0
    2.5828    2.4710   -4.4220 C   0  0  0  0  0  0  0  0  0  0  0  0
    3.9334    1.8961   -4.7746 C   0  0  0  0  0  0  0  0  0  0  0  0
    4.7630    1.3967   -3.7751 C   0  0  0  0  0  0  0  0  0  0  0  0
    5.9986    0.8688   -4.0959 C   0  0  0  0  0  0  0  0  0  0  0  0
    6.4024    0.8543   -5.4233 C   0  0  0  0  0  0  0  0  0  0  0  0
    5.5954    1.3673   -6.4293 C   0  0  0  0  0  0  0  0  0  0  0  0
    4.3554    1.8817   -6.1007 C   0  0  0  0  0  0  0  0  0  0  0  0
    7.6956    0.2837   -5.7665 N   0  0  0  0  0  0  0  0  0  0  0  0
    8.3384   -0.1970   -4.8640 O   0  0  0  0  0  0  0  0  0  0  0  0
    8.0225    0.3217   -6.9273 O   0  0  0  0  0  0  0  0  0  0  0  0
    2.3039   -0.3162   -0.0544 H   0  0  0  0  0  0  0  0  0  0  0  0
    1.5201    1.0481    0.7373 H   0  0  0  0  0  0  0  0  0  0  0  0
    2.5446    1.3298   -0.6653 H   0  0  0  0  0  0  0  0  0  0  0  0
   -0.1334   -0.1642   -0.6490 H   0  0  0  0  0  0  0  0  0  0  0  0
    0.1440    1.4785   -1.2738 H   0  0  0  0  0  0  0  0  0  0  0  0
    0.9047   -3.9830   -2.8424 H   0  0  0  0  0  0  0  0  0  0  0  0
   -0.4956   -4.0771   -1.7539 H   0  0  0  0  0  0  0  0  0  0  0  0
   -2.3016   -2.0668   -3.0128 H   0  0  0  0  0  0  0  0  0  0  0  0
   -3.8528   -2.1635   -4.9524 H   0  0  0  0  0  0  0  0  0  0  0  0
   -1.5014   -5.2660   -6.6913 H   0  0  0  0  0  0  0  0  0  0  0  0
    0.0709   -5.1625   -4.7734 H   0  0  0  0  0  0  0  0  0  0  0  0
    1.1629   -2.3861   -4.6833 H   0  0  0  0  0  0  0  0  0  0  0  0
    2.2773   -0.0117   -5.3857 H   0  0  0  0  0  0  0  0  0  0  0  0
    1.9028    2.4500   -5.2821 H   0  0  0  0  0  0  0  0  0  0  0  0
    2.6904    3.5101   -4.0943 H   0  0  0  0  0  0  0  0  0  0  0  0
    4.4447    1.4301   -2.7441 H   0  0  0  0  0  0  0  0  0  0  0  0
    6.6584    0.4752   -3.3380 H   0  0  0  0  0  0  0  0  0  0  0  0
    5.9471    1.3524   -7.4494 H   0  0  0  0  0  0  0  0  0  0  0  0
    3.7194    2.2839   -6.8746 H   0  0  0  0  0  0  0  0  0  0  0  0
  1  2  1  0  0  0  0
  2  3  1  0  0  0  0
  3  4  4  0  0  0  0
  4  5  1  0  0  0  0
  5  6  1  0  0  0  0
  6  7  1  0  0  0  0
  7  8  4  0  0  0  0
  8  9  4  0  0  0  0
  9 10  4  0  0  0  0
 10 11  4  0  0  0  0
  7 12  4  0  0  0  0
 11 12  4  0  0  0  0
 10 13  1  0  0  0  0
 13 14  4  0  0  0  0
 13 15  4  0  0  0  0
 14 15  1  0  0  0  0
  4 16  4  0  0  0  0
 16 17  2  0  0  0  0
  3 18  4  0  0  0  0
 17 18  4  0  0  0  0
 18 19  1  0  0  0  0
 19 20  1  0  0  0  0
 20 21  1  0  0  0  0
 21 22  4  0  0  0  0
 22 23  4  0  0  0  0
 23 24  4  0  0  0  0
 24 25  4  0  0  0  0
 21 26  4  0  0  0  0
 25 26  4  0  0  0  0
 24 27  1  0  0  0  0
 27 28  4  0  0  0  0
 27 29  4  0  0  0  0
 28 29  1  0  0  0  0
  1 30  1  0  0  0  0
  1 31  1  0  0  0  0
  1 32  1  0  0  0  0
  2 33  1  0  0  0  0
  2 34  1  0  0  0  0
  6 35  1  0  0  0  0
  6 36  1  0  0  0  0
  8 37  1  0  0  0  0
  9 38  1  0  0  0  0
 11 39  1  0  0  0  0
 12 40  1  0  0  0  0
 16 41  1  0  0  0  0
 17 42  1  0  0  0  0
 20 43  1  0  0  0  0
 20 44  1  0  0  0  0
 22 45  1  0  0  0  0
 23 46  1  0  0  0  0
 25 47  1  0  0  0  0
 26 48  1  0  0  0  0
M  CHG  1   1   1
M  END
