 xtb: 6.7.1 (edcfbbe)
          12202407193D

 27 26  0     0  0            999 V2000
    1.1109   -0.2105   -0.3677 O   0  0  0  0  0  0  0  0  0  0  0  0
    0.4656    0.7899   -1.1204 C   0  0  0  0  0  0  0  0  0  0  0  0
    1.0896    2.1623   -0.8356 C   0  0  0  0  0  0  0  0  0  0  0  0
    2.5777    2.2744   -0.9610 N   0  0  0  0  0  0  0  0  0  0  0  0
    3.0839    1.5664   -2.2048 C   0  0  0  0  0  0  0  0  0  0  0  0
    2.5034    2.1570   -3.4869 C   0  0  0  0  0  0  0  0  0  0  0  0
    4.6055    1.5547   -2.3155 C   0  0  0  0  0  0  0  0  0  0  0  0
    2.9112    3.7117   -0.9744 C   0  0  0  0  0  0  0  0  0  0  0  0
    3.1968    1.6768    0.2421 C   0  0  0  0  0  0  0  0  0  0  0  0
    0.5633   -1.0014   -0.3323 H   0  0  0  0  0  0  0  0  0  0  0  0
    0.5073    0.5490   -2.1913 H   0  0  0  0  0  0  0  0  0  0  0  0
   -0.5916    0.8752   -0.8403 H   0  0  0  0  0  0  0  0  0  0  0  0
    0.6222    2.8830   -1.5073 H   0  0  0  0  0  0  0  0  0  0  0  0
    0.8393    2.4423    0.1892 H   0  0  0  0  0  0  0  0  0  0  0  0
    2.7518    0.5321   -2.0904 H   0  0  0  0  0  0  0  0  0  0  0  0
    2.9667    3.1086   -3.7333 H   0  0  0  0  0  0  0  0  0  0  0  0
    2.7217    1.4740   -4.3038 H   0  0  0  0  0  0  0  0  0  0  0  0
    1.4263    2.2854   -3.4560 H   0  0  0  0  0  0  0  0  0  0  0  0
    5.0848    1.0070   -1.5106 H   0  0  0  0  0  0  0  0  0  0  0  0
    4.8642    1.0454   -3.2405 H   0  0  0  0  0  0  0  0  0  0  0  0
    5.0245    2.5553   -2.3747 H   0  0  0  0  0  0  0  0  0  0  0  0
    2.5083    4.1899   -0.0832 H   0  0  0  0  0  0  0  0  0  0  0  0
    3.9897    3.8472   -0.9764 H   0  0  0  0  0  0  0  0  0  0  0  0
    2.4894    4.1988   -1.8498 H   0  0  0  0  0  0  0  0  0  0  0  0
    2.7763    2.1331    1.1358 H   0  0  0  0  0  0  0  0  0  0  0  0
    2.9915    0.6095    0.2707 H   0  0  0  0  0  0  0  0  0  0  0  0
    4.2683    1.8515    0.2451 H   0  0  0  0  0  0  0  0  0  0  0  0
  1  2  1  0  0  0  0
  2  3  1  0  0  0  0
  3  4  1  0  0  0  0
  4  5  1  0  0  0  0
  5  6  1  0  0  0  0
  5  7  1  0  0  0  0
  4  8  1  0  0  0  0
  4  9  1  0  0  0  0
  1 10  1  0  0  0  0
  2 11  1  0  0  0  0
  2 12  1  0  0  0  0
  3 13  1  0  0  0  0
  3 14  1  0  0  0  0
  5 15  1  0  0  0  0
  6 16  1  0  0  0  0
  6 17  1  0  0  0  0
  6 18  1  0  0  0  0
  7 19  1  0  0  0  0
  7 20  1  0  0  0  0
  7 21  1  0  0  0  0
  8 22  1  0  0  0  0
  8 23  1  0  0  0  0
  8 24  1  0  0  0  0
  9 25  1  0  0  0  0
  9 26  1  0  0  0  0
  9 27  1  0  0  0  0
M  CHG  1   1   1
M  END
