 xtb: 6.7.1 (edcfbbe)
          12202407193D

 60 64  0     0  0            999 V2000
    0.5395    0.0141    0.1302 C   0  0  0  0  0  0  0  0  0  0  0  0
    0.2385    1.4195    0.0901 N   0  0  0  0  0  0  0  0  0  0  0  0
   -1.0106    1.9607    0.0689 C   0  0  0  0  0  0  0  0  0  0  0  0
   -0.8624    3.3153    0.0645 C   0  0  0  0  0  0  0  0  0  0  0  0
    0.4711    3.5805    0.0816 N   0  0  0  0  0  0  0  0  0  0  0  0
    1.1170    2.4188    0.0985 C   0  0  0  0  0  0  0  0  0  0  0  0
    1.0885    4.8929    0.1104 C   0  0  0  0  0  0  0  0  0  0  0  0
    1.7315    5.2313    1.4401 C   0  0  0  0  0  0  0  0  0  0  0  0
    3.0133    4.7579    1.6942 C   0  0  0  0  0  0  0  0  0  0  0  0
    3.6820    5.0642    2.8726 C   0  0  0  0  0  0  0  0  0  0  0  0
    3.1566    6.0992    3.6401 C   0  0  0  0  0  0  0  0  0  0  0  0
    1.8719    6.5475    3.4159 C   0  0  0  0  0  0  0  0  0  0  0  0
    1.0795    6.0036    2.4078 C   0  0  0  0  0  0  0  0  0  0  0  0
   -0.4136    6.1012    2.5433 C   0  0  0  0  0  0  0  0  0  0  0  0
   -0.9643    5.0251    3.5604 C   0  0  0  0  0  0  0  0  0  0  0  0
    0.1327    4.1190    4.0394 C   0  0  0  0  0  0  0  0  0  0  0  0
    0.5251    3.0114    3.2948 C   0  0  0  0  0  0  0  0  0  0  0  0
    1.8028    2.5029    3.4252 C   0  0  0  0  0  0  0  0  0  0  0  0
    2.7183    3.0679    4.3070 C   0  0  0  0  0  0  0  0  0  0  0  0
    4.1856    2.9030    4.0640 C   0  0  0  0  0  0  0  0  0  0  0  0
    4.7824    4.2017    3.4114 C   0  0  0  0  0  0  0  0  0  0  0  0
    2.2082    3.9450    5.2752 C   0  0  0  0  0  0  0  0  0  0  0  0
    0.9250    4.4649    5.1231 C   0  0  0  0  0  0  0  0  0  0  0  0
    3.0165    4.4354    6.3871 C   0  0  0  0  0  0  0  0  0  0  0  0
    4.2665    4.2796    6.5329 N   0  0  0  0  0  0  0  0  0  0  0  0
    4.6742    4.9060    7.7770 C   0  0  0  0  0  0  0  0  0  0  0  0
    3.3367    5.4818    8.3298 C   0  0  0  0  0  0  0  0  0  0  0  0
    2.3634    5.1275    7.3553 O   0  0  0  0  0  0  0  0  0  0  0  0
    5.2752    3.8512    8.7051 C   0  0  0  0  0  0  0  0  0  0  0  0
    5.6989    6.0018    7.4834 C   0  0  0  0  0  0  0  0  0  0  0  0
   -0.0384   -0.5131   -0.6286 H   0  0  0  0  0  0  0  0  0  0  0  0
    0.2847   -0.3969    1.1090 H   0  0  0  0  0  0  0  0  0  0  0  0
    1.5999   -0.1433   -0.0545 H   0  0  0  0  0  0  0  0  0  0  0  0
   -1.8989    1.3625    0.0592 H   0  0  0  0  0  0  0  0  0  0  0  0
   -1.6078    4.0836    0.0430 H   0  0  0  0  0  0  0  0  0  0  0  0
    2.1827    2.3064    0.1155 H   0  0  0  0  0  0  0  0  0  0  0  0
    1.8606    4.9181   -0.6638 H   0  0  0  0  0  0  0  0  0  0  0  0
    0.3232    5.6274   -0.1413 H   0  0  0  0  0  0  0  0  0  0  0  0
    3.4856    4.0936    0.9836 H   0  0  0  0  0  0  0  0  0  0  0  0
    3.7190    6.4775    4.4789 H   0  0  0  0  0  0  0  0  0  0  0  0
    1.4343    7.2646    4.0934 H   0  0  0  0  0  0  0  0  0  0  0  0
   -0.9158    5.9704    1.5855 H   0  0  0  0  0  0  0  0  0  0  0  0
   -0.6770    7.0898    2.9174 H   0  0  0  0  0  0  0  0  0  0  0  0
   -1.4075    5.5439    4.4088 H   0  0  0  0  0  0  0  0  0  0  0  0
   -1.7487    4.4457    3.0708 H   0  0  0  0  0  0  0  0  0  0  0  0
   -0.1602    2.5964    2.5694 H   0  0  0  0  0  0  0  0  0  0  0  0
    2.1314    1.7044    2.7730 H   0  0  0  0  0  0  0  0  0  0  0  0
    4.7081    2.7358    5.0036 H   0  0  0  0  0  0  0  0  0  0  0  0
    4.3485    2.0535    3.3995 H   0  0  0  0  0  0  0  0  0  0  0  0
    5.3223    4.7483    4.1816 H   0  0  0  0  0  0  0  0  0  0  0  0
    5.4819    3.9099    2.6281 H   0  0  0  0  0  0  0  0  0  0  0  0
    0.5921    5.2197    5.8181 H   0  0  0  0  0  0  0  0  0  0  0  0
    3.0538    5.0372    9.2870 H   0  0  0  0  0  0  0  0  0  0  0  0
    3.3554    6.5703    8.4278 H   0  0  0  0  0  0  0  0  0  0  0  0
    4.5557    3.0571    8.8929 H   0  0  0  0  0  0  0  0  0  0  0  0
    6.1566    3.4160    8.2425 H   0  0  0  0  0  0  0  0  0  0  0  0
    5.5581    4.3063    9.6506 H   0  0  0  0  0  0  0  0  0  0  0  0
    6.5689    5.5681    6.9980 H   0  0  0  0  0  0  0  0  0  0  0  0
    5.2747    6.7576    6.8250 H   0  0  0  0  0  0  0  0  0  0  0  0
    6.0103    6.4765    8.4099 H   0  0  0  0  0  0  0  0  0  0  0  0
  1  2  1  0  0  0  0
  2  3  4  0  0  0  0
  3  4  2  0  0  0  0
  4  5  4  0  0  0  0
  2  6  4  0  0  0  0
  5  6  4  0  0  0  0
  5  7  1  0  0  0  0
  7  8  1  0  0  0  0
  8  9  4  0  0  0  0
  9 10  4  0  0  0  0
 10 11  4  0  0  0  0
 11 12  4  0  0  0  0
  8 13  4  0  0  0  0
 12 13  4  0  0  0  0
 13 14  1  0  0  0  0
 14 15  1  0  0  0  0
 15 16  1  0  0  0  0
 16 17  4  0  0  0  0
 17 18  4  0  0  0  0
 18 19  4  0  0  0  0
 19 20  1  0  0  0  0
 10 21  1  0  0  0  0
 20 21  1  0  0  0  0
 19 22  4  0  0  0  0
 16 23  4  0  0  0  0
 22 23  4  0  0  0  0
 22 24  1  0  0  0  0
 24 25  2  0  0  0  0
 25 26  1  0  0  0  0
 26 27  1  0  0  0  0
 24 28  1  0  0  0  0
 27 28  1  0  0  0  0
 26 29  1  0  0  0  0
 26 30  1  0  0  0  0
  1 31  1  0  0  0  0
  1 32  1  0  0  0  0
  1 33  1  0  0  0  0
  3 34  1  0  0  0  0
  4 35  1  0  0  0  0
  6 36  1  0  0  0  0
  7 37  1  0  0  0  0
  7 38  1  0  0  0  0
  9 39  1  0  0  0  0
 11 40  1  0  0  0  0
 12 41  1  0  0  0  0
 14 42  1  0  0  0  0
 14 43  1  0  0  0  0
 15 44  1  0  0  0  0
 15 45  1  0  0  0  0
 17 46  1  0  0  0  0
 18 47  1  0  0  0  0
 20 48  1  0  0  0  0
 20 49  1  0  0  0  0
 21 50  1  0  0  0  0
 21 51  1  0  0  0  0
 23 52  1  0  0  0  0
 27 53  1  0  0  0  0
 27 54  1  0  0  0  0
 29 55  1  0  0  0  0
 29 56  1  0  0  0  0
 29 57  1  0  0  0  0
 30 58  1  0  0  0  0
 30 59  1  0  0  0  0
 30 60  1  0  0  0  0
M  CHG  1   1   1
M  END
