21

C          1.09043       -0.17537        0.02641
C          0.45578       -1.02475        1.12057
N          0.98384       -0.61781        2.46134
C          0.79865        0.64135        2.93292
C          1.28888        1.01661        4.17847
C          1.97445        0.08953        4.94989
C          2.15719       -1.19611        4.46140
C          1.65225       -1.53053        3.20999
C         -1.06621       -0.96074        1.12256
H          0.77999        0.87257        0.08545
H          0.80426       -0.54926       -0.96224
H          2.18281       -0.20452        0.09762
H          0.75497       -2.06732        0.95778
H          0.25601        1.34530        2.30912
H          1.13584        2.02914        4.54655
H          2.36414        0.36756        5.92838
H          2.69125       -1.93615        5.05395
H          1.77951       -2.52973        2.80262
H         -1.46790       -1.35696        0.18414
H         -1.47717       -1.55478        1.94571
H         -1.43450        0.06381        1.23548
