 xtb: 6.7.1 (edcfbbe)
          12202407193D

 24 24  0     0  0            999 V2000
    1.3946   -0.0364   -0.2046 C   0  0  0  0  0  0  0  0  0  0  0  0
    0.5625    0.4414   -1.3897 C   0  0  0  0  0  0  0  0  0  0  0  0
    0.8205   -0.4150   -2.6542 C   0  0  0  0  0  0  0  0  0  0  0  0
    0.4534   -1.8006   -2.4503 N   0  0  0  0  0  0  0  0  0  0  0  0
    1.3534   -2.6619   -1.9609 C   0  0  0  0  0  0  0  0  0  0  0  0
    1.0106   -3.9654   -1.6665 C   0  0  0  0  0  0  0  0  0  0  0  0
   -0.2950   -4.3893   -1.8786 C   0  0  0  0  0  0  0  0  0  0  0  0
   -1.2123   -3.4837   -2.3954 C   0  0  0  0  0  0  0  0  0  0  0  0
   -0.8062   -2.1945   -2.6723 C   0  0  0  0  0  0  0  0  0  0  0  0
   -0.9189    0.4942   -1.0331 C   0  0  0  0  0  0  0  0  0  0  0  0
    1.0900   -1.0275    0.1274 H   0  0  0  0  0  0  0  0  0  0  0  0
    1.2572    0.6436    0.6309 H   0  0  0  0  0  0  0  0  0  0  0  0
    2.4544   -0.0506   -0.4462 H   0  0  0  0  0  0  0  0  0  0  0  0
    0.8891    1.4504   -1.6570 H   0  0  0  0  0  0  0  0  0  0  0  0
    0.2382   -0.0117   -3.4845 H   0  0  0  0  0  0  0  0  0  0  0  0
    1.8799   -0.3633   -2.9106 H   0  0  0  0  0  0  0  0  0  0  0  0
    2.3596   -2.2985   -1.8157 H   0  0  0  0  0  0  0  0  0  0  0  0
    1.7582   -4.6378   -1.2773 H   0  0  0  0  0  0  0  0  0  0  0  0
   -0.5884   -5.4021   -1.6532 H   0  0  0  0  0  0  0  0  0  0  0  0
   -2.2336   -3.7726   -2.5848 H   0  0  0  0  0  0  0  0  0  0  0  0
   -1.4875   -1.4666   -3.0862 H   0  0  0  0  0  0  0  0  0  0  0  0
   -1.0671    1.1853   -0.2086 H   0  0  0  0  0  0  0  0  0  0  0  0
   -1.5143    0.8492   -1.8708 H   0  0  0  0  0  0  0  0  0  0  0  0
   -1.2913   -0.4783   -0.7149 H   0  0  0  0  0  0  0  0  0  0  0  0
  1  2  1  0  0  0  0
  2  3  1  0  0  0  0
  3  4  1  0  0  0  0
  4  5  4  0  0  0  0
  5  6  4  0  0  0  0
  6  7  4  0  0  0  0
  7  8  4  0  0  0  0
  4  9  4  0  0  0  0
  8  9  4  0  0  0  0
  2 10  1  0  0  0  0
  1 11  1  0  0  0  0
  1 12  1  0  0  0  0
  1 13  1  0  0  0  0
  2 14  1  0  0  0  0
  3 15  1  0  0  0  0
  3 16  1  0  0  0  0
  5 17  1  0  0  0  0
  6 18  1  0  0  0  0
  7 19  1  0  0  0  0
  8 20  1  0  0  0  0
  9 21  1  0  0  0  0
 10 22  1  0  0  0  0
 10 23  1  0  0  0  0
 10 24  1  0  0  0  0
M  CHG  1   1   1
M  END
