 xtb: 6.7.1 (edcfbbe)
          12202407193D

 39 39  0     0  0            999 V2000
    1.0303    0.1599   -0.3310 C   0  0  0  0  0  0  0  0  0  0  0  0
    0.5212   -0.7832   -1.4150 C   0  0  0  0  0  0  0  0  0  0  0  0
    0.9684   -2.2060   -1.3278 N   0  0  0  0  0  0  0  0  0  0  0  0
    0.4526   -2.8113   -0.0108 C   0  0  0  0  0  0  0  0  0  0  0  0
   -1.0627   -2.8779    0.0497 C   0  0  0  0  0  0  0  0  0  0  0  0
   -1.7708   -1.8641    0.6892 C   0  0  0  0  0  0  0  0  0  0  0  0
   -3.1492   -1.9170    0.8016 C   0  0  0  0  0  0  0  0  0  0  0  0
   -3.8479   -2.9925    0.2824 C   0  0  0  0  0  0  0  0  0  0  0  0
   -3.1549   -4.0199   -0.3350 C   0  0  0  0  0  0  0  0  0  0  0  0
   -1.7771   -3.9669   -0.4469 C   0  0  0  0  0  0  0  0  0  0  0  0
    1.0686   -4.1681    0.3272 C   0  0  0  0  0  0  0  0  0  0  0  0
    0.3538   -2.9693   -2.4585 C   0  0  0  0  0  0  0  0  0  0  0  0
    0.8156   -2.6667   -3.8757 C   0  0  0  0  0  0  0  0  0  0  0  0
    2.4636   -2.3087   -1.3376 C   0  0  0  0  0  0  0  0  0  0  0  0
    3.2452   -1.3704   -2.2520 C   0  0  0  0  0  0  0  0  0  0  0  0
    0.5605   -0.0134    0.6320 H   0  0  0  0  0  0  0  0  0  0  0  0
    0.7752    1.1734   -0.6319 H   0  0  0  0  0  0  0  0  0  0  0  0
    2.1060    0.1172   -0.1973 H   0  0  0  0  0  0  0  0  0  0  0  0
   -0.5708   -0.7855   -1.3950 H   0  0  0  0  0  0  0  0  0  0  0  0
    0.8424   -0.4076   -2.3855 H   0  0  0  0  0  0  0  0  0  0  0  0
    0.7828   -2.1106    0.7599 H   0  0  0  0  0  0  0  0  0  0  0  0
   -1.2484   -1.0283    1.1299 H   0  0  0  0  0  0  0  0  0  0  0  0
   -3.6733   -1.1199    1.3049 H   0  0  0  0  0  0  0  0  0  0  0  0
   -4.9215   -3.0377    0.3713 H   0  0  0  0  0  0  0  0  0  0  0  0
   -3.6863   -4.8738   -0.7251 H   0  0  0  0  0  0  0  0  0  0  0  0
   -1.2684   -4.7955   -0.9138 H   0  0  0  0  0  0  0  0  0  0  0  0
    2.1190   -4.0905    0.5918 H   0  0  0  0  0  0  0  0  0  0  0  0
    0.5436   -4.5549    1.1979 H   0  0  0  0  0  0  0  0  0  0  0  0
    0.9647   -4.9032   -0.4648 H   0  0  0  0  0  0  0  0  0  0  0  0
    0.5408   -4.0264   -2.2708 H   0  0  0  0  0  0  0  0  0  0  0  0
   -0.7227   -2.7982   -2.4004 H   0  0  0  0  0  0  0  0  0  0  0  0
    1.8271   -3.0135   -4.0625 H   0  0  0  0  0  0  0  0  0  0  0  0
    0.1603   -3.2172   -4.5475 H   0  0  0  0  0  0  0  0  0  0  0  0
    0.7315   -1.6164   -4.1374 H   0  0  0  0  0  0  0  0  0  0  0  0
    2.8053   -2.1288   -0.3169 H   0  0  0  0  0  0  0  0  0  0  0  0
    2.7097   -3.3374   -1.6026 H   0  0  0  0  0  0  0  0  0  0  0  0
    3.1492   -0.3272   -1.9711 H   0  0  0  0  0  0  0  0  0  0  0  0
    4.2952   -1.6365   -2.1480 H   0  0  0  0  0  0  0  0  0  0  0  0
    2.9884   -1.4697   -3.2988 H   0  0  0  0  0  0  0  0  0  0  0  0
  1  2  1  0  0  0  0
  2  3  1  0  0  0  0
  3  4  1  0  0  0  0
  4  5  1  0  0  0  0
  5  6  4  0  0  0  0
  6  7  4  0  0  0  0
  7  8  4  0  0  0  0
  8  9  4  0  0  0  0
  5 10  4  0  0  0  0
  9 10  4  0  0  0  0
  4 11  1  0  0  0  0
  3 12  1  0  0  0  0
 12 13  1  0  0  0  0
  3 14  1  0  0  0  0
 14 15  1  0  0  0  0
  1 16  1  0  0  0  0
  1 17  1  0  0  0  0
  1 18  1  0  0  0  0
  2 19  1  0  0  0  0
  2 20  1  0  0  0  0
  4 21  1  0  0  0  0
  6 22  1  0  0  0  0
  7 23  1  0  0  0  0
  8 24  1  0  0  0  0
  9 25  1  0  0  0  0
 10 26  1  0  0  0  0
 11 27  1  0  0  0  0
 11 28  1  0  0  0  0
 11 29  1  0  0  0  0
 12 30  1  0  0  0  0
 12 31  1  0  0  0  0
 13 32  1  0  0  0  0
 13 33  1  0  0  0  0
 13 34  1  0  0  0  0
 14 35  1  0  0  0  0
 14 36  1  0  0  0  0
 15 37  1  0  0  0  0
 15 38  1  0  0  0  0
 15 39  1  0  0  0  0
M  CHG  1   1   1
M  END
