 xtb: 6.7.1 (edcfbbe)
          12202407193D

 37 38  0     0  0            999 V2000
    0.1259    0.9689   -0.0094 C   0  0  0  0  0  0  0  0  0  0  0  0
    0.8873    2.2565    0.2779 C   0  0  0  0  0  0  0  0  0  0  0  0
    1.6564    2.8340   -0.8673 N   0  0  0  0  0  0  0  0  0  0  0  0
    2.5186    3.9644   -0.4231 C   0  0  0  0  0  0  0  0  0  0  0  0
    3.4547    4.4815   -1.3134 C   0  0  0  0  0  0  0  0  0  0  0  0
    4.2593    5.5464   -0.9485 C   0  0  0  0  0  0  0  0  0  0  0  0
    4.1343    6.1208    0.3044 C   0  0  0  0  0  0  0  0  0  0  0  0
    3.1902    5.6233    1.1821 C   0  0  0  0  0  0  0  0  0  0  0  0
    2.3818    4.5541    0.8250 C   0  0  0  0  0  0  0  0  0  0  0  0
    0.7149    3.3673   -1.9167 C   0  0  0  0  0  0  0  0  0  0  0  0
   -0.1359    4.5048   -1.4154 C   0  0  0  0  0  0  0  0  0  0  0  0
   -1.4010    4.2618   -0.8884 C   0  0  0  0  0  0  0  0  0  0  0  0
   -2.1773    5.3064   -0.4180 C   0  0  0  0  0  0  0  0  0  0  0  0
   -1.6997    6.6048   -0.4715 C   0  0  0  0  0  0  0  0  0  0  0  0
   -0.4505    6.8573   -1.0133 C   0  0  0  0  0  0  0  0  0  0  0  0
    0.3265    5.8148   -1.4858 C   0  0  0  0  0  0  0  0  0  0  0  0
    2.4952    1.7676   -1.4516 C   0  0  0  0  0  0  0  0  0  0  0  0
   -0.5305    1.0475   -0.8712 H   0  0  0  0  0  0  0  0  0  0  0  0
   -0.5005    0.7634    0.8555 H   0  0  0  0  0  0  0  0  0  0  0  0
    0.7835    0.1143   -0.1387 H   0  0  0  0  0  0  0  0  0  0  0  0
    0.1762    3.0179    0.6024 H   0  0  0  0  0  0  0  0  0  0  0  0
    1.6005    2.0617    1.0812 H   0  0  0  0  0  0  0  0  0  0  0  0
    3.5736    4.0830   -2.3085 H   0  0  0  0  0  0  0  0  0  0  0  0
    4.9805    5.9276   -1.6539 H   0  0  0  0  0  0  0  0  0  0  0  0
    4.7605    6.9510    0.5882 H   0  0  0  0  0  0  0  0  0  0  0  0
    3.0689    6.0649    2.1583 H   0  0  0  0  0  0  0  0  0  0  0  0
    1.6565    4.2197    1.5455 H   0  0  0  0  0  0  0  0  0  0  0  0
    1.3202    3.7057   -2.7587 H   0  0  0  0  0  0  0  0  0  0  0  0
    0.0857    2.5426   -2.2533 H   0  0  0  0  0  0  0  0  0  0  0  0
   -1.7958    3.2563   -0.8625 H   0  0  0  0  0  0  0  0  0  0  0  0
   -3.1574    5.1046   -0.0153 H   0  0  0  0  0  0  0  0  0  0  0  0
   -2.3049    7.4186   -0.1047 H   0  0  0  0  0  0  0  0  0  0  0  0
   -0.0809    7.8686   -1.0763 H   0  0  0  0  0  0  0  0  0  0  0  0
    1.2913    6.0263   -1.9223 H   0  0  0  0  0  0  0  0  0  0  0  0
    3.1631    1.3737   -0.6870 H   0  0  0  0  0  0  0  0  0  0  0  0
    1.8667    0.9671   -1.8329 H   0  0  0  0  0  0  0  0  0  0  0  0
    3.0946    2.1428   -2.2753 H   0  0  0  0  0  0  0  0  0  0  0  0
  1  2  1  0  0  0  0
  2  3  1  0  0  0  0
  3  4  1  0  0  0  0
  4  5  4  0  0  0  0
  5  6  4  0  0  0  0
  6  7  4  0  0  0  0
  7  8  4  0  0  0  0
  4  9  4  0  0  0  0
  8  9  4  0  0  0  0
  3 10  1  0  0  0  0
 10 11  1  0  0  0  0
 11 12  4  0  0  0  0
 12 13  4  0  0  0  0
 13 14  4  0  0  0  0
 14 15  4  0  0  0  0
 11 16  4  0  0  0  0
 15 16  4  0  0  0  0
  3 17  1  0  0  0  0
  1 18  1  0  0  0  0
  1 19  1  0  0  0  0
  1 20  1  0  0  0  0
  2 21  1  0  0  0  0
  2 22  1  0  0  0  0
  5 23  1  0  0  0  0
  6 24  1  0  0  0  0
  7 25  1  0  0  0  0
  8 26  1  0  0  0  0
  9 27  1  0  0  0  0
 10 28  1  0  0  0  0
 10 29  1  0  0  0  0
 12 30  1  0  0  0  0
 13 31  1  0  0  0  0
 14 32  1  0  0  0  0
 15 33  1  0  0  0  0
 16 34  1  0  0  0  0
 17 35  1  0  0  0  0
 17 36  1  0  0  0  0
 17 37  1  0  0  0  0
M  CHG  1   1   1
M  END
