34

C          0.23649       -0.42949        1.55691
C          0.43527       -1.75995        0.85353
O          1.11393       -1.59295       -0.39240
C          2.51987       -1.42367       -0.26239
C          3.22194       -1.41547       -1.63418
N          2.79800       -0.28287       -2.61709
C          2.94288        1.07508       -1.93570
C          3.75334       -0.32365       -3.80633
C          1.32759       -0.40358       -3.11615
C          1.01071       -1.60717       -4.02401
O          1.26676       -2.84683       -3.37592
C          0.82464       -3.95687       -4.15099
H         -0.39467       -0.55183        2.44184
H         -0.23197        0.29624        0.88412
H          1.19165       -0.00193        1.87590
H          0.96565       -2.47586        1.49107
H         -0.54547       -2.18917        0.62373
H          2.74127       -0.50211        0.28370
H          2.92873       -2.25922        0.31848
H          4.29778       -1.27852       -1.46608
H          3.09721       -2.36787       -2.14936
H          3.94542        1.14228       -1.50296
H          2.80296        1.85711       -2.68842
H          2.17742        1.16694       -1.16052
H          3.75079       -1.33155       -4.22959
H          3.41991        0.41011       -4.54602
H          4.75824       -0.07320       -3.45206
H          0.67650       -0.38411       -2.24195
H          1.12797        0.51346       -3.68487
H         -0.05167       -1.55491       -4.29211
H          1.58795       -1.55413       -4.95337
H          1.33317       -3.97284       -5.11963
H          1.07211       -4.87356       -3.60924
H         -0.25944       -3.91543       -4.29283
