37

C          0.39490        0.50321       -0.01286
C          1.00937        1.83920        0.39649
N          1.54587        2.69139       -0.77553
C          2.34899        3.89827       -0.25491
C          3.03423        4.72483       -1.16385
C          3.75800        5.83786       -0.72448
C          3.80976        6.14524        0.63019
C          3.13315        5.34618        1.54447
C          2.40462        4.23382        1.10725
C          0.38829        3.20613       -1.68639
C         -0.20152        4.57625       -1.43059
C         -0.88574        4.89100       -0.24802
C         -1.39398        6.17659       -0.04221
C         -1.24701        7.15562       -1.02164
C         -0.59860        6.85146       -2.21372
C         -0.08233        5.57165       -2.41875
C          2.51546        1.82571       -1.59475
H         -0.39561        0.60001       -0.75930
H         -0.04839        0.02671        0.86866
H          1.15038       -0.19124       -0.39281
H          0.26336        2.43273        0.93075
H          1.85476        1.62365        1.06122
H          3.00159        4.55094       -2.23490
H          4.27242        6.47524       -1.44136
H          4.36715        7.01527        0.97309
H          3.16407        5.59630        2.60401
H          1.88656        3.67535        1.87817
H          0.78012        3.17468       -2.71136
H         -0.41834        2.46851       -1.65741
H         -1.03952        4.15440        0.53383
H         -1.91233        6.41891        0.88344
H         -1.64675        8.15446       -0.85971
H         -0.49743        7.61286       -2.98449
H          0.41628        5.36758       -3.36491
H          3.29475        1.44505       -0.92727
H          1.95190        1.00485       -2.04633
H          2.95390        2.41138       -2.40663
