35

C          0.77881       -0.21459        0.68861
C          0.87687        1.24441        0.27098
C          1.13742        1.43517       -1.22506
C          0.03488        0.92745       -2.16189
N         -1.18294        1.74534       -2.14520
C         -1.30695        3.01143       -2.70526
O         -2.28878        3.72854       -2.48439
C         -0.19412        3.56444       -3.61474
N          0.32628        4.85057       -3.10347
C          1.65731        5.17951       -2.91021
C          1.68122        6.44903       -2.40649
N          0.36519        6.86392       -2.30978
C         -0.44850        5.89257       -2.75500
C         -0.09188        8.15517       -1.81312
C         -2.28845        1.25000       -1.32921
H         -0.10100       -0.69997        0.25719
H          0.69709       -0.28896        1.77778
H          1.66907       -0.77130        0.37879
H         -0.02655        1.78070        0.57649
H          1.70593        1.70376        0.82334
H          1.31597        2.50101       -1.40298
H          2.07064        0.91860       -1.48188
H          0.41712        0.92209       -3.18764
H         -0.22545       -0.11366       -1.94491
H          0.64235        2.87964       -3.74503
H         -0.62757        3.74932       -4.60397
H          2.42261        4.46254       -3.15322
H          2.46811        7.11676       -2.10025
H         -1.52994        5.95314       -2.81919
H          0.00690        8.89496       -2.61156
H         -1.13823        8.08254       -1.50481
H          0.51544        8.45141       -0.95346
H         -2.41507        0.17670       -1.49776
H         -2.06976        1.43601       -0.27570
H         -3.22818        1.74820       -1.58423
