 xtb: 6.7.1 (edcfbbe)
          12202407203D

 33 32  0     0  0            999 V2000
    1.1853    0.4381   -0.2603 C   0  0  0  0  0  0  0  0  0  0  0  0
    0.7303    0.0686    1.1470 C   0  0  0  0  0  0  0  0  0  0  0  0
    1.0071    1.1545    2.1904 C   0  0  0  0  0  0  0  0  0  0  0  0
    0.3932    2.5361    1.8944 C   0  0  0  0  0  0  0  0  0  0  0  0
   -1.1427    2.5251    1.6710 C   0  0  0  0  0  0  0  0  0  0  0  0
   -2.0318    2.7516    2.8490 N   0  0  0  0  0  0  0  0  0  0  0  0
   -2.0703    4.1875    3.1914 C   0  0  0  0  0  0  0  0  0  0  0  0
   -3.3954    2.3200    2.4838 C   0  0  0  0  0  0  0  0  0  0  0  0
   -1.5911    1.9868    4.0278 C   0  0  0  0  0  0  0  0  0  0  0  0
    0.7070    3.4773    2.9082 O   0  0  0  0  0  0  0  0  0  0  0  0
    2.0132    4.0180    2.8542 C   0  0  0  0  0  0  0  0  0  0  0  0
    0.5965    1.2530   -0.6753 H   0  0  0  0  0  0  0  0  0  0  0  0
    1.0781   -0.4197   -0.9187 H   0  0  0  0  0  0  0  0  0  0  0  0
    2.2320    0.7312   -0.2578 H   0  0  0  0  0  0  0  0  0  0  0  0
   -0.3292   -0.2004    1.1308 H   0  0  0  0  0  0  0  0  0  0  0  0
    1.2721   -0.8240    1.4638 H   0  0  0  0  0  0  0  0  0  0  0  0
    0.6909    0.8018    3.1722 H   0  0  0  0  0  0  0  0  0  0  0  0
    2.0881    1.2976    2.2379 H   0  0  0  0  0  0  0  0  0  0  0  0
    0.8258    2.8864    0.9446 H   0  0  0  0  0  0  0  0  0  0  0  0
   -1.3917    3.3007    0.9443 H   0  0  0  0  0  0  0  0  0  0  0  0
   -1.3954    1.5586    1.2339 H   0  0  0  0  0  0  0  0  0  0  0  0
   -2.4802    4.7606    2.3621 H   0  0  0  0  0  0  0  0  0  0  0  0
   -2.6955    4.3438    4.0681 H   0  0  0  0  0  0  0  0  0  0  0  0
   -1.0603    4.5327    3.4010 H   0  0  0  0  0  0  0  0  0  0  0  0
   -3.4211    1.2464    2.3036 H   0  0  0  0  0  0  0  0  0  0  0  0
   -4.0870    2.5515    3.2923 H   0  0  0  0  0  0  0  0  0  0  0  0
   -3.7290    2.8342    1.5839 H   0  0  0  0  0  0  0  0  0  0  0  0
   -1.5416    0.9265    3.7882 H   0  0  0  0  0  0  0  0  0  0  0  0
   -0.6116    2.3418    4.3412 H   0  0  0  0  0  0  0  0  0  0  0  0
   -2.2972    2.1279    4.8443 H   0  0  0  0  0  0  0  0  0  0  0  0
    2.0412    4.8060    3.6036 H   0  0  0  0  0  0  0  0  0  0  0  0
    2.7727    3.2707    3.0934 H   0  0  0  0  0  0  0  0  0  0  0  0
    2.2201    4.4431    1.8680 H   0  0  0  0  0  0  0  0  0  0  0  0
  1  2  1  0  0  0  0
  2  3  1  0  0  0  0
  3  4  1  0  0  0  0
  4  5  1  0  0  0  0
  5  6  1  0  0  0  0
  6  7  1  0  0  0  0
  6  8  1  0  0  0  0
  6  9  1  0  0  0  0
  4 10  1  0  0  0  0
 10 11  1  0  0  0  0
  1 12  1  0  0  0  0
  1 13  1  0  0  0  0
  1 14  1  0  0  0  0
  2 15  1  0  0  0  0
  2 16  1  0  0  0  0
  3 17  1  0  0  0  0
  3 18  1  0  0  0  0
  4 19  1  0  0  0  0
  5 20  1  0  0  0  0
  5 21  1  0  0  0  0
  7 22  1  0  0  0  0
  7 23  1  0  0  0  0
  7 24  1  0  0  0  0
  8 25  1  0  0  0  0
  8 26  1  0  0  0  0
  8 27  1  0  0  0  0
  9 28  1  0  0  0  0
  9 29  1  0  0  0  0
  9 30  1  0  0  0  0
 11 31  1  0  0  0  0
 11 32  1  0  0  0  0
 11 33  1  0  0  0  0
M  CHG  1   1   1
M  END
