 xtb: 6.7.1 (edcfbbe)
          12202407203D

 15 15  0     0  0            999 V2000
    1.0343   -0.2554    0.0267 O   0  0  0  0  0  0  0  0  0  0  0  0
    0.3807   -0.0111    1.1865 N   0  0  0  0  0  0  0  0  0  0  0  0
    0.6890    0.9192    2.1282 C   0  0  0  0  0  0  0  0  0  0  0  0
   -0.2514    0.7962    3.1190 C   0  0  0  0  0  0  0  0  0  0  0  0
   -1.0941   -0.2089    2.7336 N   0  0  0  0  0  0  0  0  0  0  0  0
   -0.7063   -0.7036    1.5482 C   0  0  0  0  0  0  0  0  0  0  0  0
   -1.3578   -1.7909    0.8081 C   0  0  0  0  0  0  0  0  0  0  0  0
   -2.1704   -0.6801    3.3951 O   0  0  0  0  0  0  0  0  0  0  0  0
   -0.4966    1.7160    4.7319 Br  0  0  0  0  0  0  0  0  0  0  0  0
    1.7958    0.3414   -0.0714 H   0  0  0  0  0  0  0  0  0  0  0  0
    1.5194    1.5935    2.0583 H   0  0  0  0  0  0  0  0  0  0  0  0
   -1.3212   -2.7166    1.3832 H   0  0  0  0  0  0  0  0  0  0  0  0
   -2.4100   -1.5585    0.6444 H   0  0  0  0  0  0  0  0  0  0  0  0
   -0.8611   -1.9390   -0.1467 H   0  0  0  0  0  0  0  0  0  0  0  0
   -2.2866   -0.1909    4.2327 H   0  0  0  0  0  0  0  0  0  0  0  0
  1  2  1  0  0  0  0
  2  3  4  0  0  0  0
  3  4  4  0  0  0  0
  4  5  1  0  0  0  0
  2  6  4  0  0  0  0
  5  6  4  0  0  0  0
  6  7  1  0  0  0  0
  5  8  1  0  0  0  0
  4  9  1  0  0  0  0
  1 10  1  0  0  0  0
  3 11  1  0  0  0  0
  7 12  1  0  0  0  0
  7 13  1  0  0  0  0
  7 14  1  0  0  0  0
  8 15  1  0  0  0  0
M  CHG  1   1   1
M  END
