34

C          2.17206        0.92017       -0.72755
C          2.56132        0.04100       -1.89941
N          1.48571       -0.94890       -2.14444
C          0.48314       -0.65602       -3.00735
C         -0.52281       -1.58385       -3.26630
C         -0.50054       -2.81845       -2.62591
C          0.52054       -3.08826       -1.72080
C          1.52581       -2.14805       -1.51381
C          0.67713       -4.39252       -1.06305
O          1.78812       -4.90279       -1.18615
N         -0.37506       -4.95907       -0.35131
C         -1.57848       -4.24755        0.09954
C         -2.86076       -4.81361       -0.48733
C         -0.18020       -6.32195        0.15904
C         -0.40992       -7.37168       -0.91799
H          1.23697        1.45295       -0.92854
H          2.95295        1.66054       -0.53034
H          2.02635        0.32538        0.17998
H          2.69959        0.62820       -2.81331
H          3.49005       -0.50461       -1.70218
H          0.50123        0.31705       -3.49104
H         -1.31239       -1.35109       -3.97872
H         -1.25537       -3.56762       -2.85530
H          2.36659       -2.34257       -0.85223
H         -1.60805       -4.30989        1.19389
H         -1.50597       -3.18327       -0.13802
H         -3.03503       -5.83867       -0.14612
H         -3.71767       -4.20845       -0.17525
H         -2.82826       -4.82594       -1.58059
H          0.84264       -6.41395        0.54237
H         -0.85616       -6.49555        1.00350
H          0.28483       -7.24289       -1.75408
H         -0.26437       -8.37505       -0.50611
H         -1.42602       -7.31181       -1.31972
