 xtb: 6.7.1 (edcfbbe)
          12202407203D

 44 43  0     0  0            999 V2000
    2.2509   -0.4801    0.8978 C   0  0  0  0  0  0  0  0  0  0  0  0
    1.4103   -0.7955    2.1290 C   0  0  0  0  0  0  0  0  0  0  0  0
    1.1871    0.4199    3.0282 C   0  0  0  0  0  0  0  0  0  0  0  0
    0.2295    1.4673    2.4553 C   0  0  0  0  0  0  0  0  0  0  0  0
   -1.5399    0.9765    2.4029 P   0  0  0  0  0  0  0  0  0  0  0  0
   -1.8536   -0.0926    3.8360 C   0  0  0  0  0  0  0  0  0  0  0  0
   -2.6494    2.4250    2.6624 C   0  0  0  0  0  0  0  0  0  0  0  0
   -2.0487    3.8139    2.4446 C   0  0  0  0  0  0  0  0  0  0  0  0
   -1.6786    4.0947    0.9884 C   0  0  0  0  0  0  0  0  0  0  0  0
   -2.8842    4.4817    0.1395 C   0  0  0  0  0  0  0  0  0  0  0  0
   -2.1408   -0.0151    0.9787 C   0  0  0  0  0  0  0  0  0  0  0  0
   -2.2951    0.6798   -0.3745 C   0  0  0  0  0  0  0  0  0  0  0  0
   -0.9920    0.8243   -1.1610 C   0  0  0  0  0  0  0  0  0  0  0  0
   -0.4689   -0.5020   -1.6990 C   0  0  0  0  0  0  0  0  0  0  0  0
    1.7711    0.2524    0.2546 H   0  0  0  0  0  0  0  0  0  0  0  0
    2.4134   -1.3820    0.3142 H   0  0  0  0  0  0  0  0  0  0  0  0
    3.2219   -0.0922    1.1944 H   0  0  0  0  0  0  0  0  0  0  0  0
    0.4460   -1.2127    1.8265 H   0  0  0  0  0  0  0  0  0  0  0  0
    1.9266   -1.5597    2.7122 H   0  0  0  0  0  0  0  0  0  0  0  0
    0.8327    0.0923    4.0067 H   0  0  0  0  0  0  0  0  0  0  0  0
    2.1491    0.9124    3.1857 H   0  0  0  0  0  0  0  0  0  0  0  0
    0.2583    2.3561    3.0928 H   0  0  0  0  0  0  0  0  0  0  0  0
    0.5487    1.7692    1.4578 H   0  0  0  0  0  0  0  0  0  0  0  0
   -1.5091    0.3996    4.7448 H   0  0  0  0  0  0  0  0  0  0  0  0
   -2.9251   -0.2735    3.9170 H   0  0  0  0  0  0  0  0  0  0  0  0
   -1.3408   -1.0462    3.7252 H   0  0  0  0  0  0  0  0  0  0  0  0
   -3.5136    2.2830    2.0082 H   0  0  0  0  0  0  0  0  0  0  0  0
   -3.0006    2.3440    3.6955 H   0  0  0  0  0  0  0  0  0  0  0  0
   -2.7871    4.5496    2.7689 H   0  0  0  0  0  0  0  0  0  0  0  0
   -1.1743    3.9434    3.0845 H   0  0  0  0  0  0  0  0  0  0  0  0
   -0.9588    4.9135    0.9570 H   0  0  0  0  0  0  0  0  0  0  0  0
   -1.1925    3.2106    0.5651 H   0  0  0  0  0  0  0  0  0  0  0  0
   -3.3058    5.4196    0.4911 H   0  0  0  0  0  0  0  0  0  0  0  0
   -2.5881    4.6132   -0.8976 H   0  0  0  0  0  0  0  0  0  0  0  0
   -3.6673    3.7273    0.1756 H   0  0  0  0  0  0  0  0  0  0  0  0
   -1.4974   -0.8913    0.8808 H   0  0  0  0  0  0  0  0  0  0  0  0
   -3.1224   -0.3666    1.3187 H   0  0  0  0  0  0  0  0  0  0  0  0
   -2.9877    0.0847   -0.9735 H   0  0  0  0  0  0  0  0  0  0  0  0
   -2.7502    1.6612   -0.2382 H   0  0  0  0  0  0  0  0  0  0  0  0
   -1.1782    1.4917   -2.0038 H   0  0  0  0  0  0  0  0  0  0  0  0
   -0.2293    1.2948   -0.5364 H   0  0  0  0  0  0  0  0  0  0  0  0
   -1.2154   -0.9733   -2.3329 H   0  0  0  0  0  0  0  0  0  0  0  0
    0.4235   -0.3359   -2.2959 H   0  0  0  0  0  0  0  0  0  0  0  0
   -0.2110   -1.1925   -0.8999 H   0  0  0  0  0  0  0  0  0  0  0  0
  1  2  1  0  0  0  0
  2  3  1  0  0  0  0
  3  4  1  0  0  0  0
  4  5  1  0  0  0  0
  5  6  1  0  0  0  0
  5  7  1  0  0  0  0
  7  8  1  0  0  0  0
  8  9  1  0  0  0  0
  9 10  1  0  0  0  0
  5 11  1  0  0  0  0
 11 12  1  0  0  0  0
 12 13  1  0  0  0  0
 13 14  1  0  0  0  0
  1 15  1  0  0  0  0
  1 16  1  0  0  0  0
  1 17  1  0  0  0  0
  2 18  1  0  0  0  0
  2 19  1  0  0  0  0
  3 20  1  0  0  0  0
  3 21  1  0  0  0  0
  4 22  1  0  0  0  0
  4 23  1  0  0  0  0
  6 24  1  0  0  0  0
  6 25  1  0  0  0  0
  6 26  1  0  0  0  0
  7 27  1  0  0  0  0
  7 28  1  0  0  0  0
  8 29  1  0  0  0  0
  8 30  1  0  0  0  0
  9 31  1  0  0  0  0
  9 32  1  0  0  0  0
 10 33  1  0  0  0  0
 10 34  1  0  0  0  0
 10 35  1  0  0  0  0
 11 36  1  0  0  0  0
 11 37  1  0  0  0  0
 12 38  1  0  0  0  0
 12 39  1  0  0  0  0
 13 40  1  0  0  0  0
 13 41  1  0  0  0  0
 14 42  1  0  0  0  0
 14 43  1  0  0  0  0
 14 44  1  0  0  0  0
M  CHG  1   1   1
M  END
