 xtb: 6.7.1 (edcfbbe)
          12202407203D

115116  0     0  0            999 V2000
    1.3710    2.0427    1.6546 C   0  0  0  0  0  0  0  0  0  0  0  0
    1.8386    2.5729    0.3043 C   0  0  0  0  0  0  0  0  0  0  0  0
    1.5899    1.5969   -0.8467 C   0  0  0  0  0  0  0  0  0  0  0  0
    0.1193    1.2583   -1.0992 C   0  0  0  0  0  0  0  0  0  0  0  0
   -0.7722    2.4559   -1.4329 C   0  0  0  0  0  0  0  0  0  0  0  0
   -0.3608    3.2409   -2.6802 C   0  0  0  0  0  0  0  0  0  0  0  0
   -0.3082    2.4223   -3.9719 C   0  0  0  0  0  0  0  0  0  0  0  0
   -1.6111    1.7092   -4.3384 C   0  0  0  0  0  0  0  0  0  0  0  0
   -2.8180    2.6300   -4.5257 C   0  0  0  0  0  0  0  0  0  0  0  0
   -2.6830    3.6487   -5.6594 C   0  0  0  0  0  0  0  0  0  0  0  0
   -2.4363    3.0503   -7.0471 C   0  0  0  0  0  0  0  0  0  0  0  0
   -3.4567    1.9998   -7.4901 C   0  0  0  0  0  0  0  0  0  0  0  0
   -4.8886    2.5241   -7.6260 C   0  0  0  0  0  0  0  0  0  0  0  0
   -5.1210    3.3601   -8.8879 C   0  0  0  0  0  0  0  0  0  0  0  0
   -5.2557    2.5208  -10.1604 C   0  0  0  0  0  0  0  0  0  0  0  0
   -6.5624    1.7206  -10.2433 C   0  0  0  0  0  0  0  0  0  0  0  0
   -7.7098    2.5521  -10.5395 N   0  0  0  0  0  0  0  0  0  0  0  0
   -8.5374    3.1446   -9.6052 C   0  0  0  0  0  0  0  0  0  0  0  0
   -8.5461    3.1275   -8.2157 C   0  0  0  0  0  0  0  0  0  0  0  0
   -9.5494    3.8348   -7.5863 C   0  0  0  0  0  0  0  0  0  0  0  0
  -10.5202    4.5346   -8.3068 C   0  0  0  0  0  0  0  0  0  0  0  0
  -10.5283    4.5478   -9.6862 C   0  0  0  0  0  0  0  0  0  0  0  0
   -9.5209    3.8391  -10.3289 C   0  0  0  0  0  0  0  0  0  0  0  0
   -9.2538    3.6288  -11.6687 N   0  0  0  0  0  0  0  0  0  0  0  0
   -8.1594    2.8656  -11.7617 C   0  0  0  0  0  0  0  0  0  0  0  0
   -7.5472    2.3837  -13.0179 C   0  0  0  0  0  0  0  0  0  0  0  0
  -10.0915    4.1443  -12.7309 C   0  0  0  0  0  0  0  0  0  0  0  0
   -9.8264    5.6282  -13.0123 C   0  0  0  0  0  0  0  0  0  0  0  0
   -8.5864    5.8962  -13.8665 C   0  0  0  0  0  0  0  0  0  0  0  0
   -8.6697    5.3777  -15.3057 C   0  0  0  0  0  0  0  0  0  0  0  0
   -9.8543    5.9033  -16.1194 C   0  0  0  0  0  0  0  0  0  0  0  0
   -9.9030    7.4225  -16.2870 C   0  0  0  0  0  0  0  0  0  0  0  0
   -8.6974    8.0295  -17.0077 C   0  0  0  0  0  0  0  0  0  0  0  0
   -8.4281    7.4669  -18.4053 C   0  0  0  0  0  0  0  0  0  0  0  0
   -9.6013    7.5698  -19.3819 C   0  0  0  0  0  0  0  0  0  0  0  0
  -10.1026    8.9910  -19.6439 C   0  0  0  0  0  0  0  0  0  0  0  0
   -9.0651    9.9416  -20.2441 C   0  0  0  0  0  0  0  0  0  0  0  0
   -8.4776    9.4942  -21.5842 C   0  0  0  0  0  0  0  0  0  0  0  0
   -9.5027    9.2644  -22.6967 C   0  0  0  0  0  0  0  0  0  0  0  0
  -10.3805   10.4729  -23.0291 C   0  0  0  0  0  0  0  0  0  0  0  0
   -9.6197   11.7188  -23.4849 C   0  0  0  0  0  0  0  0  0  0  0  0
   -8.8528   11.5127  -24.7858 C   0  0  0  0  0  0  0  0  0  0  0  0
    0.2893    1.9393    1.6828 H   0  0  0  0  0  0  0  0  0  0  0  0
    1.6651    2.7246    2.4493 H   0  0  0  0  0  0  0  0  0  0  0  0
    1.8158    1.0705    1.8564 H   0  0  0  0  0  0  0  0  0  0  0  0
    1.3473    3.5252    0.0972 H   0  0  0  0  0  0  0  0  0  0  0  0
    2.9128    2.7674    0.3557 H   0  0  0  0  0  0  0  0  0  0  0  0
    2.0269    2.0121   -1.7573 H   0  0  0  0  0  0  0  0  0  0  0  0
    2.1183    0.6644   -0.6311 H   0  0  0  0  0  0  0  0  0  0  0  0
    0.0720    0.5347   -1.9160 H   0  0  0  0  0  0  0  0  0  0  0  0
   -0.2898    0.7655   -0.2150 H   0  0  0  0  0  0  0  0  0  0  0  0
   -1.7965    2.0958   -1.5543 H   0  0  0  0  0  0  0  0  0  0  0  0
   -0.7780    3.1445   -0.5858 H   0  0  0  0  0  0  0  0  0  0  0  0
   -1.0591    4.0717   -2.8070 H   0  0  0  0  0  0  0  0  0  0  0  0
    0.6257    3.6794   -2.5176 H   0  0  0  0  0  0  0  0  0  0  0  0
   -0.0182    3.0886   -4.7876 H   0  0  0  0  0  0  0  0  0  0  0  0
    0.4760    1.6679   -3.8845 H   0  0  0  0  0  0  0  0  0  0  0  0
   -1.4430    1.1391   -5.2549 H   0  0  0  0  0  0  0  0  0  0  0  0
   -1.8539    0.9876   -3.5561 H   0  0  0  0  0  0  0  0  0  0  0  0
   -3.7013    2.0101   -4.6987 H   0  0  0  0  0  0  0  0  0  0  0  0
   -2.9950    3.1781   -3.5989 H   0  0  0  0  0  0  0  0  0  0  0  0
   -3.5895    4.2591   -5.6807 H   0  0  0  0  0  0  0  0  0  0  0  0
   -1.8564    4.3246   -5.4352 H   0  0  0  0  0  0  0  0  0  0  0  0
   -2.4131    3.8681   -7.7716 H   0  0  0  0  0  0  0  0  0  0  0  0
   -1.4495    2.5853   -7.0616 H   0  0  0  0  0  0  0  0  0  0  0  0
   -3.1289    1.5819   -8.4449 H   0  0  0  0  0  0  0  0  0  0  0  0
   -3.4540    1.1826   -6.7686 H   0  0  0  0  0  0  0  0  0  0  0  0
   -5.5682    1.6682   -7.6158 H   0  0  0  0  0  0  0  0  0  0  0  0
   -5.1252    3.1324   -6.7532 H   0  0  0  0  0  0  0  0  0  0  0  0
   -6.0131    3.9789   -8.7652 H   0  0  0  0  0  0  0  0  0  0  0  0
   -4.2776    4.0392   -9.0149 H   0  0  0  0  0  0  0  0  0  0  0  0
   -5.1803    3.1752  -11.0317 H   0  0  0  0  0  0  0  0  0  0  0  0
   -4.4303    1.8105  -10.2095 H   0  0  0  0  0  0  0  0  0  0  0  0
   -6.4841    0.9559  -11.0184 H   0  0  0  0  0  0  0  0  0  0  0  0
   -6.7549    1.2197   -9.2940 H   0  0  0  0  0  0  0  0  0  0  0  0
   -7.8054    2.5913   -7.6471 H   0  0  0  0  0  0  0  0  0  0  0  0
   -9.5879    3.8471   -6.5089 H   0  0  0  0  0  0  0  0  0  0  0  0
  -11.2837    5.0737   -7.7694 H   0  0  0  0  0  0  0  0  0  0  0  0
  -11.2842    5.0847  -10.2349 H   0  0  0  0  0  0  0  0  0  0  0  0
   -6.4650    2.3360  -12.9265 H   0  0  0  0  0  0  0  0  0  0  0  0
   -7.9103    1.3814  -13.2541 H   0  0  0  0  0  0  0  0  0  0  0  0
   -7.7913    3.0390  -13.8484 H   0  0  0  0  0  0  0  0  0  0  0  0
   -9.9427    3.5486  -13.6305 H   0  0  0  0  0  0  0  0  0  0  0  0
  -11.1271    4.0128  -12.4072 H   0  0  0  0  0  0  0  0  0  0  0  0
  -10.7010    6.0374  -13.5158 H   0  0  0  0  0  0  0  0  0  0  0  0
   -9.7216    6.1527  -12.0602 H   0  0  0  0  0  0  0  0  0  0  0  0
   -8.4327    6.9748  -13.8974 H   0  0  0  0  0  0  0  0  0  0  0  0
   -7.7063    5.4651  -13.3801 H   0  0  0  0  0  0  0  0  0  0  0  0
   -7.7430    5.6509  -15.8117 H   0  0  0  0  0  0  0  0  0  0  0  0
   -8.7224    4.2845  -15.3157 H   0  0  0  0  0  0  0  0  0  0  0  0
   -9.8101    5.4405  -17.1062 H   0  0  0  0  0  0  0  0  0  0  0  0
  -10.7894    5.5732  -15.6602 H   0  0  0  0  0  0  0  0  0  0  0  0
  -10.8084    7.6678  -16.8439 H   0  0  0  0  0  0  0  0  0  0  0  0
   -9.9950    7.8978  -15.3074 H   0  0  0  0  0  0  0  0  0  0  0  0
   -8.8596    9.1059  -17.0830 H   0  0  0  0  0  0  0  0  0  0  0  0
   -7.7993    7.8867  -16.4015 H   0  0  0  0  0  0  0  0  0  0  0  0
   -7.5698    7.9969  -18.8217 H   0  0  0  0  0  0  0  0  0  0  0  0
   -8.1410    6.4153  -18.3250 H   0  0  0  0  0  0  0  0  0  0  0  0
   -9.2932    7.1207  -20.3278 H   0  0  0  0  0  0  0  0  0  0  0  0
  -10.4383    6.9757  -19.0073 H   0  0  0  0  0  0  0  0  0  0  0  0
  -10.9597    8.9278  -20.3170 H   0  0  0  0  0  0  0  0  0  0  0  0
  -10.4647    9.4256  -18.7093 H   0  0  0  0  0  0  0  0  0  0  0  0
   -9.5354   10.9188  -20.3695 H   0  0  0  0  0  0  0  0  0  0  0  0
   -8.2429   10.0738  -19.5368 H   0  0  0  0  0  0  0  0  0  0  0  0
   -7.7604   10.2509  -21.9086 H   0  0  0  0  0  0  0  0  0  0  0  0
   -7.9162    8.5678  -21.4415 H   0  0  0  0  0  0  0  0  0  0  0  0
   -8.9651    8.9557  -23.5954 H   0  0  0  0  0  0  0  0  0  0  0  0
  -10.1569    8.4349  -22.4184 H   0  0  0  0  0  0  0  0  0  0  0  0
  -11.0719   10.1789  -23.8232 H   0  0  0  0  0  0  0  0  0  0  0  0
  -10.9837   10.7321  -22.1564 H   0  0  0  0  0  0  0  0  0  0  0  0
  -10.3446   12.5241  -23.6281 H   0  0  0  0  0  0  0  0  0  0  0  0
   -8.9296   12.0398  -22.7027 H   0  0  0  0  0  0  0  0  0  0  0  0
   -9.5195   11.1558  -25.5678 H   0  0  0  0  0  0  0  0  0  0  0  0
   -8.4115   12.4508  -25.1148 H   0  0  0  0  0  0  0  0  0  0  0  0
   -8.0515   10.7893  -24.6592 H   0  0  0  0  0  0  0  0  0  0  0  0
  1  2  1  0  0  0  0
  2  3  1  0  0  0  0
  3  4  1  0  0  0  0
  4  5  1  0  0  0  0
  5  6  1  0  0  0  0
  6  7  1  0  0  0  0
  7  8  1  0  0  0  0
  8  9  1  0  0  0  0
  9 10  1  0  0  0  0
 10 11  1  0  0  0  0
 11 12  1  0  0  0  0
 12 13  1  0  0  0  0
 13 14  1  0  0  0  0
 14 15  1  0  0  0  0
 15 16  1  0  0  0  0
 16 17  1  0  0  0  0
 17 18  1  0  0  0  0
 18 19  4  0  0  0  0
 19 20  4  0  0  0  0
 20 21  4  0  0  0  0
 21 22  4  0  0  0  0
 18 23  4  0  0  0  0
 22 23  4  0  0  0  0
 23 24  1  0  0  0  0
 17 25  4  0  0  0  0
 24 25  4  0  0  0  0
 25 26  1  0  0  0  0
 24 27  1  0  0  0  0
 27 28  1  0  0  0  0
 28 29  1  0  0  0  0
 29 30  1  0  0  0  0
 30 31  1  0  0  0  0
 31 32  1  0  0  0  0
 32 33  1  0  0  0  0
 33 34  1  0  0  0  0
 34 35  1  0  0  0  0
 35 36  1  0  0  0  0
 36 37  1  0  0  0  0
 37 38  1  0  0  0  0
 38 39  1  0  0  0  0
 39 40  1  0  0  0  0
 40 41  1  0  0  0  0
 41 42  1  0  0  0  0
  1 43  1  0  0  0  0
  1 44  1  0  0  0  0
  1 45  1  0  0  0  0
  2 46  1  0  0  0  0
  2 47  1  0  0  0  0
  3 48  1  0  0  0  0
  3 49  1  0  0  0  0
  4 50  1  0  0  0  0
  4 51  1  0  0  0  0
  5 52  1  0  0  0  0
  5 53  1  0  0  0  0
  6 54  1  0  0  0  0
  6 55  1  0  0  0  0
  7 56  1  0  0  0  0
  7 57  1  0  0  0  0
  8 58  1  0  0  0  0
  8 59  1  0  0  0  0
  9 60  1  0  0  0  0
  9 61  1  0  0  0  0
 10 62  1  0  0  0  0
 10 63  1  0  0  0  0
 11 64  1  0  0  0  0
 11 65  1  0  0  0  0
 12 66  1  0  0  0  0
 12 67  1  0  0  0  0
 13 68  1  0  0  0  0
 13 69  1  0  0  0  0
 14 70  1  0  0  0  0
 14 71  1  0  0  0  0
 15 72  1  0  0  0  0
 15 73  1  0  0  0  0
 16 74  1  0  0  0  0
 16 75  1  0  0  0  0
 19 76  1  0  0  0  0
 20 77  1  0  0  0  0
 21 78  1  0  0  0  0
 22 79  1  0  0  0  0
 26 80  1  0  0  0  0
 26 81  1  0  0  0  0
 26 82  1  0  0  0  0
 27 83  1  0  0  0  0
 27 84  1  0  0  0  0
 28 85  1  0  0  0  0
 28 86  1  0  0  0  0
 29 87  1  0  0  0  0
 29 88  1  0  0  0  0
 30 89  1  0  0  0  0
 30 90  1  0  0  0  0
 31 91  1  0  0  0  0
 31 92  1  0  0  0  0
 32 93  1  0  0  0  0
 32 94  1  0  0  0  0
 33 95  1  0  0  0  0
 33 96  1  0  0  0  0
 34 97  1  0  0  0  0
 34 98  1  0  0  0  0
 35 99  1  0  0  0  0
 35100  1  0  0  0  0
 36101  1  0  0  0  0
 36102  1  0  0  0  0
 37103  1  0  0  0  0
 37104  1  0  0  0  0
 38105  1  0  0  0  0
 38106  1  0  0  0  0
 39107  1  0  0  0  0
 39108  1  0  0  0  0
 40109  1  0  0  0  0
 40110  1  0  0  0  0
 41111  1  0  0  0  0
 41112  1  0  0  0  0
 42113  1  0  0  0  0
 42114  1  0  0  0  0
 42115  1  0  0  0  0
M  CHG  1   1   1
M  END
