 xtb: 6.7.1 (edcfbbe)
          12202407203D

 46 48  0     0  0            999 V2000
    1.0030   -0.6231    0.1231 C   0  0  0  0  0  0  0  0  0  0  0  0
    0.2537   -0.0398   -1.0617 C   0  0  0  0  0  0  0  0  0  0  0  0
    0.9416   -0.3067   -2.2998 O   0  0  0  0  0  0  0  0  0  0  0  0
    1.9595    0.4906   -2.6058 C   0  0  0  0  0  0  0  0  0  0  0  0
    2.3454    1.4266   -1.9754 O   0  0  0  0  0  0  0  0  0  0  0  0
    2.5948    0.0663   -3.9482 C   0  0  0  0  0  0  0  0  0  0  0  0
    2.3409   -1.3124   -4.2517 N   0  0  0  0  0  0  0  0  0  0  0  0
    1.2369   -1.8049   -4.8295 C   0  0  0  0  0  0  0  0  0  0  0  0
    0.1637   -0.9740   -5.4054 C   0  0  0  0  0  0  0  0  0  0  0  0
    1.2790   -3.1426   -4.8232 N   0  0  0  0  0  0  0  0  0  0  0  0
    2.4604   -3.5420   -4.2230 C   0  0  0  0  0  0  0  0  0  0  0  0
    3.1310   -2.3690   -3.8385 C   0  0  0  0  0  0  0  0  0  0  0  0
    4.3542   -2.4149   -3.1832 C   0  0  0  0  0  0  0  0  0  0  0  0
    4.8869   -3.6650   -2.9408 C   0  0  0  0  0  0  0  0  0  0  0  0
    4.2318   -4.8317   -3.3410 C   0  0  0  0  0  0  0  0  0  0  0  0
    3.0121   -4.7948   -3.9862 C   0  0  0  0  0  0  0  0  0  0  0  0
    0.2285   -4.0115   -5.2904 C   0  0  0  0  0  0  0  0  0  0  0  0
   -1.1279   -3.6991   -4.6084 C   0  0  0  0  0  0  0  0  0  0  0  0
   -2.0948   -3.4952   -5.2979 O   0  0  0  0  0  0  0  0  0  0  0  0
   -1.1424   -3.6200   -3.1403 C   0  0  0  0  0  0  0  0  0  0  0  0
   -0.1818   -4.2186   -2.3225 C   0  0  0  0  0  0  0  0  0  0  0  0
   -0.2773   -4.1078   -0.9485 C   0  0  0  0  0  0  0  0  0  0  0  0
   -1.3225   -3.4013   -0.3720 C   0  0  0  0  0  0  0  0  0  0  0  0
   -2.2866   -2.8110   -1.1756 C   0  0  0  0  0  0  0  0  0  0  0  0
   -2.2019   -2.9238   -2.5490 C   0  0  0  0  0  0  0  0  0  0  0  0
    1.1598   -1.6903   -0.0160 H   0  0  0  0  0  0  0  0  0  0  0  0
    0.4204   -0.4658    1.0251 H   0  0  0  0  0  0  0  0  0  0  0  0
    1.9644   -0.1307    0.2425 H   0  0  0  0  0  0  0  0  0  0  0  0
   -0.7227   -0.5110   -1.1856 H   0  0  0  0  0  0  0  0  0  0  0  0
    0.1424    1.0419   -0.9507 H   0  0  0  0  0  0  0  0  0  0  0  0
    2.1855    0.7147   -4.7275 H   0  0  0  0  0  0  0  0  0  0  0  0
    3.6701    0.2444   -3.8877 H   0  0  0  0  0  0  0  0  0  0  0  0
   -0.3742   -0.4547   -4.6114 H   0  0  0  0  0  0  0  0  0  0  0  0
    0.5834   -0.2199   -6.0716 H   0  0  0  0  0  0  0  0  0  0  0  0
   -0.5486   -1.5706   -5.9668 H   0  0  0  0  0  0  0  0  0  0  0  0
    4.8691   -1.5203   -2.8740 H   0  0  0  0  0  0  0  0  0  0  0  0
    5.8353   -3.7453   -2.4345 H   0  0  0  0  0  0  0  0  0  0  0  0
    4.6927   -5.7858   -3.1413 H   0  0  0  0  0  0  0  0  0  0  0  0
    2.5259   -5.7054   -4.2979 H   0  0  0  0  0  0  0  0  0  0  0  0
    0.0891   -3.9020   -6.3709 H   0  0  0  0  0  0  0  0  0  0  0  0
    0.5047   -5.0467   -5.0860 H   0  0  0  0  0  0  0  0  0  0  0  0
    0.6182   -4.8075   -2.7424 H   0  0  0  0  0  0  0  0  0  0  0  0
    0.4601   -4.5871   -0.3224 H   0  0  0  0  0  0  0  0  0  0  0  0
   -1.3914   -3.3229    0.7019 H   0  0  0  0  0  0  0  0  0  0  0  0
   -3.1094   -2.2744   -0.7285 H   0  0  0  0  0  0  0  0  0  0  0  0
   -2.9488   -2.4805   -3.1903 H   0  0  0  0  0  0  0  0  0  0  0  0
  1  2  1  0  0  0  0
  2  3  1  0  0  0  0
  3  4  1  0  0  0  0
  4  5  2  0  0  0  0
  4  6  1  0  0  0  0
  6  7  1  0  0  0  0
  7  8  4  0  0  0  0
  8  9  1  0  0  0  0
  8 10  4  0  0  0  0
 10 11  1  0  0  0  0
  7 12  1  0  0  0  0
 11 12  4  0  0  0  0
 12 13  4  0  0  0  0
 13 14  4  0  0  0  0
 14 15  4  0  0  0  0
 11 16  4  0  0  0  0
 15 16  4  0  0  0  0
 10 17  1  0  0  0  0
 17 18  1  0  0  0  0
 18 19  2  0  0  0  0
 18 20  1  0  0  0  0
 20 21  4  0  0  0  0
 21 22  4  0  0  0  0
 22 23  4  0  0  0  0
 23 24  4  0  0  0  0
 20 25  4  0  0  0  0
 24 25  4  0  0  0  0
  1 26  1  0  0  0  0
  1 27  1  0  0  0  0
  1 28  1  0  0  0  0
  2 29  1  0  0  0  0
  2 30  1  0  0  0  0
  6 31  1  0  0  0  0
  6 32  1  0  0  0  0
  9 33  1  0  0  0  0
  9 34  1  0  0  0  0
  9 35  1  0  0  0  0
 13 36  1  0  0  0  0
 14 37  1  0  0  0  0
 15 38  1  0  0  0  0
 16 39  1  0  0  0  0
 17 40  1  0  0  0  0
 17 41  1  0  0  0  0
 21 42  1  0  0  0  0
 22 43  1  0  0  0  0
 23 44  1  0  0  0  0
 24 45  1  0  0  0  0
 25 46  1  0  0  0  0
M  CHG  1   1   1
M  END
