 xtb: 6.7.1 (edcfbbe)
          12202407203D

 21 22  0     0  0            999 V2000
    1.3822   -0.8977   -0.1031 O   0  0  0  0  0  0  0  0  0  0  0  0
    2.3269   -0.1608   -0.0215 N   0  0  0  0  0  0  0  0  0  0  0  0
    2.7508    0.5904   -0.8604 O   0  0  0  0  0  0  0  0  0  0  0  0
    3.0241   -0.1997    1.2434 C   0  0  0  0  0  0  0  0  0  0  0  0
    2.7382   -1.0116    2.3076 C   0  0  0  0  0  0  0  0  0  0  0  0
    3.6365   -0.7231    3.2802 N   0  0  0  0  0  0  0  0  0  0  0  0
    4.4624    0.2424    2.8348 C   0  0  0  0  0  0  0  0  0  0  0  0
    4.1028    0.5796    1.5918 N   0  0  0  0  0  0  0  0  0  0  0  0
    4.7298    1.5795    0.7651 C   0  0  0  0  0  0  0  0  0  0  0  0
    5.5782    0.8334    3.5955 C   0  0  0  0  0  0  0  0  0  0  0  0
    3.6864   -1.3596    4.5723 C   0  0  0  0  0  0  0  0  0  0  0  0
    1.9648   -1.7493    2.4024 H   0  0  0  0  0  0  0  0  0  0  0  0
    5.4692    2.1275    1.3413 H   0  0  0  0  0  0  0  0  0  0  0  0
    5.2086    1.1098   -0.0957 H   0  0  0  0  0  0  0  0  0  0  0  0
    3.9806    2.2719    0.3807 H   0  0  0  0  0  0  0  0  0  0  0  0
    6.4974    0.8161    3.0107 H   0  0  0  0  0  0  0  0  0  0  0  0
    5.3644    1.8733    3.8482 H   0  0  0  0  0  0  0  0  0  0  0  0
    5.7497    0.2892    4.5191 H   0  0  0  0  0  0  0  0  0  0  0  0
    4.6213   -1.9085    4.6932 H   0  0  0  0  0  0  0  0  0  0  0  0
    3.6005   -0.6192    5.3678 H   0  0  0  0  0  0  0  0  0  0  0  0
    2.8586   -2.0599    4.6551 H   0  0  0  0  0  0  0  0  0  0  0  0
  1  2  4  0  0  0  0
  1  3  1  0  0  0  0
  2  3  4  0  0  0  0
  2  4  1  0  0  0  0
  4  5  2  0  0  0  0
  5  6  4  0  0  0  0
  6  7  4  0  0  0  0
  4  8  1  0  0  0  0
  7  8  4  0  0  0  0
  8  9  1  0  0  0  0
  7 10  1  0  0  0  0
  6 11  1  0  0  0  0
  5 12  1  0  0  0  0
  9 13  1  0  0  0  0
  9 14  1  0  0  0  0
  9 15  1  0  0  0  0
 10 16  1  0  0  0  0
 10 17  1  0  0  0  0
 10 18  1  0  0  0  0
 11 19  1  0  0  0  0
 11 20  1  0  0  0  0
 11 21  1  0  0  0  0
M  CHG  1   1   1
M  END
