115

C          1.23493       -0.02280        0.96518
C          1.39757        1.34023        0.31059
C          1.71574        1.26465       -1.18495
C          0.65164        0.58417       -2.05303
C         -0.75076        1.19665       -1.97593
C         -0.84110        2.67795       -2.35918
C         -0.40271        3.01407       -3.78925
C         -1.17491        2.29231       -4.89898
C         -2.68976        2.52095       -4.89150
C         -3.12920        3.97156       -5.12172
C         -2.73787        4.57871       -6.47783
C         -3.10123        3.74285       -7.71204
C         -4.60068        3.46526       -7.86469
C         -5.34289        4.54053       -8.66928
C         -5.32049        4.30700      -10.18616
C         -6.05138        3.04778      -10.67025
N         -7.51430        3.22061      -10.72711
C         -8.39594        3.02155       -9.66766
C         -8.20392        2.51485       -8.38363
C         -9.32344        2.50849       -7.54356
C        -10.57204        2.98772       -7.97730
C        -10.76074        3.48102       -9.27531
C         -9.64278        3.46996      -10.10901
N         -9.48274        3.82241      -11.45166
C         -8.21810        3.53445      -11.83929
C         -7.66655        3.55093      -13.23053
C        -10.57199        4.31228      -12.31677
C        -10.64314        5.83998      -12.39047
C         -9.53220        6.51084      -13.20796
C         -9.54854        6.16446      -14.70220
C        -10.55827        6.97050      -15.52433
C        -10.07254        8.35973      -15.95418
C         -8.79420        8.38863      -16.80441
C         -8.78297        7.46378      -18.02746
C         -9.88678        7.72328      -19.05766
C         -9.87183        9.11574      -19.69570
C         -8.58173        9.48559      -20.43550
C         -8.19565        8.55614      -21.59143
C         -9.23345        8.43186      -22.71204
C         -9.64315        9.74779      -23.38227
C         -8.50034       10.56010      -23.99629
C         -7.76512        9.82737      -25.10757
H          0.36257       -0.55481        0.57461
H          1.09590        0.09332        2.04485
H          2.12130       -0.64416        0.80307
H          0.49581        1.93807        0.48136
H          2.21729        1.87011        0.81072
H          1.89388        2.28062       -1.55647
H          2.66301        0.72679       -1.31780
H          0.99614        0.59229       -3.09403
H          0.58306       -0.47486       -1.77650
H         -1.42104        0.61088       -2.61602
H         -1.14307        1.07671       -0.95915
H         -1.87399        3.01285       -2.20748
H         -0.23906        3.27288       -1.66257
H         -0.48987        4.09749       -3.93316
H          0.66385        2.78785       -3.90501
H         -0.76142        2.59911       -5.86679
H         -0.98623        1.21452       -4.82835
H         -3.14443        1.87497       -5.65162
H         -3.10867        2.17665       -3.93898
H         -4.21823        4.02155       -5.00571
H         -2.72857        4.60975       -4.32539
H         -3.20421        5.56795       -6.56174
H         -1.65508        4.75322       -6.48744
H         -2.71787        4.24656       -8.60753
H         -2.56846        2.78629       -7.66318
H         -4.71534        2.48505       -8.33548
H         -5.07794        3.37115       -6.88502
H         -6.38101        4.59604       -8.32911
H         -4.91103        5.52550       -8.45343
H         -5.75760        5.18429      -10.67906
H         -4.27539        4.25123      -10.51308
H         -5.69340        2.81544      -11.67760
H         -5.82672        2.16306      -10.07003
H         -7.24386        2.14431       -8.04969
H         -9.22552        2.12526       -6.52712
H        -11.41554        2.96675       -7.28612
H        -11.72630        3.83977       -9.60838
H         -7.07209        4.45820      -13.33656
H         -7.05610        2.65553      -13.35417
H         -8.48554        3.51396      -13.94288
H        -10.49252        3.84475      -13.29965
H        -11.51862        3.94114      -11.90668
H        -11.61499        6.12444      -12.81002
H        -10.61289        6.24526      -11.37153
H         -9.60646        7.59757      -13.08249
H         -8.56337        6.22890      -12.78312
H         -8.53860        6.29515      -15.10281
H         -9.78035        5.10619      -14.84419
H        -10.81523        6.39298      -16.41995
H        -11.49543        7.07978      -14.96640
H        -10.88038        8.84628      -16.51436
H         -9.90976        8.97864      -15.06370
H         -8.61340        9.42165      -17.12445
H         -7.93653        8.13076      -16.17164
H         -7.80350        7.54243      -18.51366
H         -8.85577        6.42100      -17.69636
H         -9.81272        6.96272      -19.84403
H        -10.86653        7.56734      -18.59141
H        -10.72069        9.18950      -20.38565
H        -10.05693        9.87061      -18.92245
H         -8.68042       10.51078      -20.81114
H         -7.74923        9.51647      -19.72273
H         -7.24678        8.90628      -22.01509
H         -7.98678        7.55355      -21.19958
H         -8.84187        7.74528      -23.47234
H        -10.13577        7.94805      -22.31922
H        -10.37602        9.52009      -24.16674
H        -10.16896       10.37839      -22.65581
H         -8.91942       11.48581      -24.40905
H         -7.78626       10.86355      -23.22323
H         -8.45848        9.50491      -25.89072
H         -7.02176       10.48818      -25.56505
H         -7.23730        8.94766      -24.72805
