14

C          1.03456        0.00537        0.09284
N          0.57445       -0.09131        1.45939
C          0.42321       -1.20969        2.18398
N         -0.00913       -0.81724        3.39471
N         -0.11074        0.53470        3.48468
C          0.24317        0.93533        2.31696
N         -0.27072       -1.64253        4.51247
H          0.63886        0.91285       -0.37095
H          0.68751       -0.86540       -0.46980
H          2.12716        0.03446        0.08775
H          0.61657       -2.22658        1.86809
H          0.30284        1.95833        1.97257
H         -0.67603       -2.54376        4.27253
H         -0.82790       -1.14168        5.20392
