 xtb: 6.7.1 (edcfbbe)
          12202407203D

 21 20  0     0  0            999 V2000
    1.0093   -0.0744    0.0568 C   0  0  0  0  0  0  0  0  0  0  0  0
    0.3250   -1.0747    0.5822 C   0  0  0  0  0  0  0  0  0  0  0  0
   -1.1729   -1.1633    0.5232 C   0  0  0  0  0  0  0  0  0  0  0  0
   -1.6854   -2.2555   -0.3679 N   0  0  0  0  0  0  0  0  0  0  0  0
   -1.2132   -3.5698    0.1030 C   0  0  0  0  0  0  0  0  0  0  0  0
   -3.1589   -2.2351   -0.3439 C   0  0  0  0  0  0  0  0  0  0  0  0
   -1.2158   -2.0309   -1.7462 C   0  0  0  0  0  0  0  0  0  0  0  0
    0.5335    0.7355   -0.4720 H   0  0  0  0  0  0  0  0  0  0  0  0
    2.0790   -0.0150    0.1494 H   0  0  0  0  0  0  0  0  0  0  0  0
    0.8329   -1.8520    1.1346 H   0  0  0  0  0  0  0  0  0  0  0  0
   -1.5660   -1.3429    1.5271 H   0  0  0  0  0  0  0  0  0  0  0  0
   -1.5770   -0.2179    0.1549 H   0  0  0  0  0  0  0  0  0  0  0  0
   -1.5034   -3.7252    1.1407 H   0  0  0  0  0  0  0  0  0  0  0  0
   -1.6505   -4.3615   -0.5031 H   0  0  0  0  0  0  0  0  0  0  0  0
   -0.1303   -3.6329    0.0245 H   0  0  0  0  0  0  0  0  0  0  0  0
   -3.5305   -1.2682   -0.6793 H   0  0  0  0  0  0  0  0  0  0  0  0
   -3.5556   -3.0064   -1.0020 H   0  0  0  0  0  0  0  0  0  0  0  0
   -3.5240   -2.4173    0.6655 H   0  0  0  0  0  0  0  0  0  0  0  0
   -1.6041   -1.0883   -2.1268 H   0  0  0  0  0  0  0  0  0  0  0  0
   -0.1282   -1.9924   -1.7665 H   0  0  0  0  0  0  0  0  0  0  0  0
   -1.5550   -2.8365   -2.3942 H   0  0  0  0  0  0  0  0  0  0  0  0
  1  2  2  0  0  0  0
  2  3  1  0  0  0  0
  3  4  1  0  0  0  0
  4  5  1  0  0  0  0
  4  6  1  0  0  0  0
  4  7  1  0  0  0  0
  1  8  1  0  0  0  0
  1  9  1  0  0  0  0
  2 10  1  0  0  0  0
  3 11  1  0  0  0  0
  3 12  1  0  0  0  0
  5 13  1  0  0  0  0
  5 14  1  0  0  0  0
  5 15  1  0  0  0  0
  6 16  1  0  0  0  0
  6 17  1  0  0  0  0
  6 18  1  0  0  0  0
  7 19  1  0  0  0  0
  7 20  1  0  0  0  0
  7 21  1  0  0  0  0
M  CHG  1   1   1
M  END
