 xtb: 6.7.1 (edcfbbe)
          12202407203D

 29 30  0     0  0            999 V2000
    0.6374    0.8417   -1.1045 O   0  0  0  0  0  0  0  0  0  0  0  0
   -0.5455    0.4169   -1.6606 N   0  0  0  0  0  0  0  0  0  0  0  0
   -1.4410   -0.0172   -0.8961 C   0  0  0  0  0  0  0  0  0  0  0  0
   -1.3505   -0.1659    0.6115 C   0  0  0  0  0  0  0  0  0  0  0  0
   -2.3447    0.6475    1.2713 N   0  0  0  0  0  0  0  0  0  0  0  0
   -3.4851    0.1798    1.8487 C   0  0  0  0  0  0  0  0  0  0  0  0
   -4.1843    1.2582    2.2983 C   0  0  0  0  0  0  0  0  0  0  0  0
   -3.4676    2.3679    1.9834 N   0  0  0  0  0  0  0  0  0  0  0  0
   -2.3508    1.9837    1.3591 C   0  0  0  0  0  0  0  0  0  0  0  0
   -1.2973    2.9244    0.8557 C   0  0  0  0  0  0  0  0  0  0  0  0
   -1.8426    3.7555   -0.1297 O   0  0  0  0  0  0  0  0  0  0  0  0
   -1.0109    4.9077   -0.1474 C   0  0  0  0  0  0  0  0  0  0  0  0
   -0.4508    4.9831    1.2902 C   0  0  0  0  0  0  0  0  0  0  0  0
   -0.8772    3.7651    1.8967 O   0  0  0  0  0  0  0  0  0  0  0  0
   -3.8486    3.7243    2.2739 C   0  0  0  0  0  0  0  0  0  0  0  0
    1.2117    1.0396   -1.8612 H   0  0  0  0  0  0  0  0  0  0  0  0
   -2.3552   -0.3193   -1.3834 H   0  0  0  0  0  0  0  0  0  0  0  0
   -1.5295   -1.2102    0.8794 H   0  0  0  0  0  0  0  0  0  0  0  0
   -0.3482    0.1220    0.9401 H   0  0  0  0  0  0  0  0  0  0  0  0
   -3.7159   -0.8644    1.9055 H   0  0  0  0  0  0  0  0  0  0  0  0
   -5.1248    1.3042    2.8090 H   0  0  0  0  0  0  0  0  0  0  0  0
   -0.4352    2.3577    0.4531 H   0  0  0  0  0  0  0  0  0  0  0  0
   -1.6304    5.7594   -0.4245 H   0  0  0  0  0  0  0  0  0  0  0  0
   -0.2079    4.7784   -0.8807 H   0  0  0  0  0  0  0  0  0  0  0  0
   -0.8680    5.8067    1.8718 H   0  0  0  0  0  0  0  0  0  0  0  0
    0.6406    5.0418    1.2991 H   0  0  0  0  0  0  0  0  0  0  0  0
   -3.1616    4.1537    3.0043 H   0  0  0  0  0  0  0  0  0  0  0  0
   -3.8079    4.3190    1.3615 H   0  0  0  0  0  0  0  0  0  0  0  0
   -4.8600    3.7351    2.6731 H   0  0  0  0  0  0  0  0  0  0  0  0
  1  2  1  0  0  0  0
  2  3  2  0  0  0  0
  3  4  1  0  0  0  0
  4  5  1  0  0  0  0
  5  6  4  0  0  0  0
  6  7  2  0  0  0  0
  7  8  4  0  0  0  0
  5  9  4  0  0  0  0
  8  9  4  0  0  0  0
  9 10  1  0  0  0  0
 10 11  1  0  0  0  0
 11 12  1  0  0  0  0
 12 13  1  0  0  0  0
 10 14  1  0  0  0  0
 13 14  1  0  0  0  0
  8 15  1  0  0  0  0
  1 16  1  0  0  0  0
  3 17  1  0  0  0  0
  4 18  1  0  0  0  0
  4 19  1  0  0  0  0
  6 20  1  0  0  0  0
  7 21  1  0  0  0  0
 10 22  1  0  0  0  0
 12 23  1  0  0  0  0
 12 24  1  0  0  0  0
 13 25  1  0  0  0  0
 13 26  1  0  0  0  0
 15 27  1  0  0  0  0
 15 28  1  0  0  0  0
 15 29  1  0  0  0  0
M  CHG  1   1   1
M  END
