41

C         -0.20831        0.71152       -0.74311
N          0.06765       -0.68935       -0.53044
C          0.03848       -1.36394        0.65254
O          0.41617       -2.54081        0.69648
C         -0.36117       -0.64298        1.94370
N          0.81685       -0.24617        2.73177
C          1.80293       -1.05540        3.11503
N          1.93003       -2.33676        2.77369
N          2.65014       -0.38982        3.89086
C          2.22695        0.93462        3.99263
C          1.04115        1.02292        3.25761
C          0.32119        2.21213        3.15546
C          0.85876        3.32145        3.82148
C          2.05628        3.23434        4.55380
C          2.76886        2.03301        4.65707
C          3.83476       -0.93754        4.54303
C          3.50357       -1.31183        5.96571
C          2.66018       -2.39673        6.25393
C          2.36582       -2.73877        7.57543
C          2.90631       -2.00066        8.62483
C          3.74399       -0.92174        8.35573
C          4.04373       -0.58038        7.03551
H         -1.26429        0.90362       -0.53815
H          0.02006        0.95886       -1.78226
H          0.41278        1.31014       -0.07220
H          0.35594       -1.24508       -1.33050
H         -0.99393        0.21851        1.72432
H         -0.95747       -1.33224        2.55251
H          1.31499       -2.75668        2.07405
H          2.70126       -2.90706        3.07751
H         -0.60260        2.28445        2.59693
H          0.33595        4.27739        3.77506
H          2.43575        4.12400        5.05749
H          3.68725        1.96609        5.22456
H          4.20464       -1.81186        3.99867
H          4.63957       -0.19436        4.50179
H          2.22119       -2.99389        5.46074
H          1.71535       -3.58387        7.79042
H          2.67739       -2.26856        9.65397
H          4.16750       -0.34896        9.17806
H          4.70928        0.26166        6.85784
