42

C          0.40596        0.35543       -0.24494
C          0.80908        1.67666        0.38704
O          1.27911        2.60096       -0.60709
C          2.54736        2.40264       -1.03147
O          3.32102        1.53533       -0.66395
N          3.02181        3.23965       -2.00691
C          2.37608        4.32270       -2.54350
C          3.21296        4.81038       -3.51057
N          4.33649        3.98867       -3.53115
C          4.21343        3.05192       -2.57015
C          5.44901        4.07352       -4.48481
C          6.76035        4.02776       -3.74770
C          7.31159        5.19200       -3.19603
C          8.52505        5.14412       -2.50016
C          9.20735        3.93293       -2.33694
C          8.64519        2.76747       -2.86954
C          7.44174        2.81369       -3.57848
C         10.46228        3.82521       -1.58183
C         11.44124        4.74297       -1.61483
C         12.71514        4.62588       -0.87221
O         13.56624        5.50110       -0.91236
O         12.79169        3.46367       -0.18088
C         14.01135        3.29984        0.54481
H         -0.30468        0.51729       -1.06175
H         -0.05067       -0.30499        0.49781
H          1.27174       -0.15874       -0.67399
H         -0.06671        2.13642        0.85672
H          1.56117        1.53562        1.17179
H          1.40413        4.61653       -2.18342
H          3.14807        5.63155       -4.20465
H          4.93296        2.27444       -2.33229
H          5.35815        3.23641       -5.18621
H          5.36837        4.99981       -5.06488
H          6.81107        6.15256       -3.30623
H          8.92590        6.06553       -2.08102
H          9.15349        1.81114       -2.75086
H          7.05268        1.88761       -3.99854
H         10.57841        2.91748       -0.99278
H         11.37103        5.64551       -2.21194
H         14.86758        3.30274       -0.13697
H         14.11413        4.08305        1.30227
H         13.97569        2.33101        1.05084
