29

O          0.79013        0.55037       -0.85446
N         -0.34409        0.63399       -1.66525
C         -1.41784        0.27360       -1.02982
C         -1.50166       -0.17429        0.41051
N         -2.45989        0.65517        1.16905
C         -3.60561        0.17096        1.77890
C         -4.20867        1.22723        2.38899
N         -3.42249        2.33503        2.14081
C         -2.32939        1.99104        1.40786
C         -1.20665        2.92888        0.91257
O         -1.57203        3.53312       -0.33087
C         -0.79437        4.72933       -0.34881
C         -0.81091        5.16713        1.09417
O         -0.86642        3.95448        1.85695
C         -3.71833        3.68811        2.60413
H          1.51739        0.72441       -1.48841
H         -2.36660        0.28131       -1.59202
H         -1.85692       -1.21034        0.41140
H         -0.54277       -0.14089        0.93166
H         -3.84900       -0.87537        1.70148
H         -5.10712        1.33518        2.97264
H         -0.32636        2.29558        0.77966
H         -1.22807        5.46671       -1.02894
H          0.21817        4.47964       -0.68453
H         -1.71267        5.74391        1.32234
H          0.06513        5.75773        1.37447
H         -2.98570        3.97846        3.36075
H         -3.69178        4.37393        1.75431
H         -4.71739        3.72201        3.04821
