 xtb: 6.7.1 (edcfbbe)
          12202407203D

 59 62  0     0  0            999 V2000
   -2.0263   -0.0435   -0.7607 Br  0  0  0  0  0  0  0  0  0  0  0  0
   -0.1664    0.0903   -0.3864 C   0  0  0  0  0  0  0  0  0  0  0  0
    0.5392    1.2073   -0.8095 C   0  0  0  0  0  0  0  0  0  0  0  0
    1.8909    1.2997   -0.5367 C   0  0  0  0  0  0  0  0  0  0  0  0
    2.5460    0.2822    0.1487 C   0  0  0  0  0  0  0  0  0  0  0  0
    1.8250   -0.8302    0.5647 C   0  0  0  0  0  0  0  0  0  0  0  0
    0.4705   -0.9294    0.3046 C   0  0  0  0  0  0  0  0  0  0  0  0
    4.0202    0.4006    0.4637 C   0  0  0  0  0  0  0  0  0  0  0  0
    4.7899    0.8411   -0.6764 N   0  0  0  0  0  0  0  0  0  0  0  0
    5.3846    2.0617   -0.8090 C   0  0  0  0  0  0  0  0  0  0  0  0
    6.0132    2.0682   -2.0089 C   0  0  0  0  0  0  0  0  0  0  0  0
    5.7903    0.8540   -2.5977 N   0  0  0  0  0  0  0  0  0  0  0  0
    5.0456    0.1155   -1.7707 C   0  0  0  0  0  0  0  0  0  0  0  0
    4.5223   -1.2478   -1.9798 C   0  0  0  0  0  0  0  0  0  0  0  0
    6.4358    0.4622   -3.8287 C   0  0  0  0  0  0  0  0  0  0  0  0
    7.9513    0.2729   -3.6451 C   0  0  0  0  0  0  0  0  0  0  0  0
    8.4307   -1.1447   -3.2354 C   0  0  0  0  0  0  0  0  0  0  0  0
    7.6735   -2.1863   -4.0448 C   0  0  0  0  0  0  0  0  0  0  0  0
    7.7101   -2.1136   -5.4366 C   0  0  0  0  0  0  0  0  0  0  0  0
    7.0269   -3.0317   -6.2118 C   0  0  0  0  0  0  0  0  0  0  0  0
    6.2907   -4.0405   -5.6117 C   0  0  0  0  0  0  0  0  0  0  0  0
    6.2515   -4.1252   -4.2321 C   0  0  0  0  0  0  0  0  0  0  0  0
    6.9380   -3.2056   -3.4540 C   0  0  0  0  0  0  0  0  0  0  0  0
    9.9360   -1.2457   -3.4857 C   0  0  0  0  0  0  0  0  0  0  0  0
   10.5007   -2.3639   -4.0908 C   0  0  0  0  0  0  0  0  0  0  0  0
   11.8698   -2.4497   -4.2814 C   0  0  0  0  0  0  0  0  0  0  0  0
   12.6997   -1.4269   -3.8593 C   0  0  0  0  0  0  0  0  0  0  0  0
   12.1507   -0.3218   -3.2319 C   0  0  0  0  0  0  0  0  0  0  0  0
   10.7834   -0.2346   -3.0416 C   0  0  0  0  0  0  0  0  0  0  0  0
    8.2129   -1.3611   -1.7261 C   0  0  0  0  0  0  0  0  0  0  0  0
    7.4172   -0.7148   -1.0677 O   0  0  0  0  0  0  0  0  0  0  0  0
    8.9615   -2.3350   -1.1878 N   0  0  0  0  0  0  0  0  0  0  0  0
    0.0326    1.9980   -1.3395 H   0  0  0  0  0  0  0  0  0  0  0  0
    2.4350    2.1760   -0.8581 H   0  0  0  0  0  0  0  0  0  0  0  0
    2.3196   -1.6232    1.1052 H   0  0  0  0  0  0  0  0  0  0  0  0
   -0.0880   -1.7907    0.6347 H   0  0  0  0  0  0  0  0  0  0  0  0
    4.1681    1.1315    1.2637 H   0  0  0  0  0  0  0  0  0  0  0  0
    4.4114   -0.5618    0.8040 H   0  0  0  0  0  0  0  0  0  0  0  0
    5.3257    2.8170   -0.0527 H   0  0  0  0  0  0  0  0  0  0  0  0
    6.5886    2.8355   -2.4841 H   0  0  0  0  0  0  0  0  0  0  0  0
    4.9474   -1.9164   -1.2315 H   0  0  0  0  0  0  0  0  0  0  0  0
    3.4388   -1.2541   -1.8613 H   0  0  0  0  0  0  0  0  0  0  0  0
    4.7776   -1.6314   -2.9622 H   0  0  0  0  0  0  0  0  0  0  0  0
    5.9763   -0.4482   -4.2133 H   0  0  0  0  0  0  0  0  0  0  0  0
    6.2687    1.2646   -4.5523 H   0  0  0  0  0  0  0  0  0  0  0  0
    8.4369    0.5229   -4.5883 H   0  0  0  0  0  0  0  0  0  0  0  0
    8.2920    0.9874   -2.8959 H   0  0  0  0  0  0  0  0  0  0  0  0
    8.2958   -1.3457   -5.9183 H   0  0  0  0  0  0  0  0  0  0  0  0
    7.0745   -2.9619   -7.2874 H   0  0  0  0  0  0  0  0  0  0  0  0
    5.7590   -4.7585   -6.2159 H   0  0  0  0  0  0  0  0  0  0  0  0
    5.6894   -4.9123   -3.7529 H   0  0  0  0  0  0  0  0  0  0  0  0
    6.9004   -3.2979   -2.3791 H   0  0  0  0  0  0  0  0  0  0  0  0
    9.8737   -3.1773   -4.4243 H   0  0  0  0  0  0  0  0  0  0  0  0
   12.2844   -3.3230   -4.7610 H   0  0  0  0  0  0  0  0  0  0  0  0
   13.7656   -1.4928   -4.0107 H   0  0  0  0  0  0  0  0  0  0  0  0
   12.7882    0.4767   -2.8849 H   0  0  0  0  0  0  0  0  0  0  0  0
   10.3841    0.6287   -2.5316 H   0  0  0  0  0  0  0  0  0  0  0  0
    9.6544   -2.8270   -1.7271 H   0  0  0  0  0  0  0  0  0  0  0  0
    8.9093   -2.5034   -0.1959 H   0  0  0  0  0  0  0  0  0  0  0  0
  1  2  1  0  0  0  0
  2  3  4  0  0  0  0
  3  4  4  0  0  0  0
  4  5  4  0  0  0  0
  5  6  4  0  0  0  0
  2  7  4  0  0  0  0
  6  7  4  0  0  0  0
  5  8  1  0  0  0  0
  8  9  1  0  0  0  0
  9 10  4  0  0  0  0
 10 11  2  0  0  0  0
 11 12  4  0  0  0  0
  9 13  4  0  0  0  0
 12 13  4  0  0  0  0
 13 14  1  0  0  0  0
 12 15  1  0  0  0  0
 15 16  1  0  0  0  0
 16 17  1  0  0  0  0
 17 18  1  0  0  0  0
 18 19  4  0  0  0  0
 19 20  4  0  0  0  0
 20 21  4  0  0  0  0
 21 22  4  0  0  0  0
 18 23  4  0  0  0  0
 22 23  4  0  0  0  0
 17 24  1  0  0  0  0
 24 25  4  0  0  0  0
 25 26  4  0  0  0  0
 26 27  4  0  0  0  0
 27 28  4  0  0  0  0
 24 29  4  0  0  0  0
 28 29  4  0  0  0  0
 17 30  1  0  0  0  0
 30 31  2  0  0  0  0
 30 32  4  0  0  0  0
  3 33  1  0  0  0  0
  4 34  1  0  0  0  0
  6 35  1  0  0  0  0
  7 36  1  0  0  0  0
  8 37  1  0  0  0  0
  8 38  1  0  0  0  0
 10 39  1  0  0  0  0
 11 40  1  0  0  0  0
 14 41  1  0  0  0  0
 14 42  1  0  0  0  0
 14 43  1  0  0  0  0
 15 44  1  0  0  0  0
 15 45  1  0  0  0  0
 16 46  1  0  0  0  0
 16 47  1  0  0  0  0
 19 48  1  0  0  0  0
 20 49  1  0  0  0  0
 21 50  1  0  0  0  0
 22 51  1  0  0  0  0
 23 52  1  0  0  0  0
 25 53  1  0  0  0  0
 26 54  1  0  0  0  0
 27 55  1  0  0  0  0
 28 56  1  0  0  0  0
 29 57  1  0  0  0  0
 32 58  1  0  0  0  0
 32 59  1  0  0  0  0
M  CHG  1   1   1
M  END
