 xtb: 6.7.1 (edcfbbe)
          12202407213D

 42 44  0     0  0            999 V2000
    0.6946   -1.1374   -2.7812 C   0  0  0  0  0  0  0  0  0  0  0  0
    0.2002   -2.0027   -1.7535 O   0  0  0  0  0  0  0  0  0  0  0  0
    0.6538   -3.2266   -1.6876 C   0  0  0  0  0  0  0  0  0  0  0  0
    1.4954   -3.7189   -2.4015 O   0  0  0  0  0  0  0  0  0  0  0  0
   -0.0390   -4.0162   -0.5663 C   0  0  0  0  0  0  0  0  0  0  0  0
    0.8949   -4.6031    0.3669 N   0  0  0  0  0  0  0  0  0  0  0  0
    1.7792   -5.5873    0.0926 C   0  0  0  0  0  0  0  0  0  0  0  0
    1.9976   -6.0873   -1.1200 N   0  0  0  0  0  0  0  0  0  0  0  0
    2.4039   -5.9625    1.2302 N   0  0  0  0  0  0  0  0  0  0  0  0
    1.8956   -5.2086    2.2825 C   0  0  0  0  0  0  0  0  0  0  0  0
    0.9420   -4.3408    1.7351 C   0  0  0  0  0  0  0  0  0  0  0  0
    0.2574   -3.4430    2.5364 C   0  0  0  0  0  0  0  0  0  0  0  0
    0.5566   -3.4505    3.8883 C   0  0  0  0  0  0  0  0  0  0  0  0
    1.5051   -4.3167    4.4267 C   0  0  0  0  0  0  0  0  0  0  0  0
    2.1952   -5.2150    3.6326 C   0  0  0  0  0  0  0  0  0  0  0  0
    3.4032   -6.9034    1.3957 N   0  0  0  0  0  0  0  0  0  0  0  0
    2.9049   -8.2666    1.6187 C   0  0  0  0  0  0  0  0  0  0  0  0
    2.1382   -8.7941    0.4348 C   0  0  0  0  0  0  0  0  0  0  0  0
    2.8226   -9.2123   -0.7039 C   0  0  0  0  0  0  0  0  0  0  0  0
    2.1266   -9.6231   -1.8281 C   0  0  0  0  0  0  0  0  0  0  0  0
    0.7411   -9.6119   -1.8270 C   0  0  0  0  0  0  0  0  0  0  0  0
    0.0545   -9.1952   -0.6991 C   0  0  0  0  0  0  0  0  0  0  0  0
    0.7495   -8.7827    0.4254 C   0  0  0  0  0  0  0  0  0  0  0  0
    0.7858   -0.1468   -2.3419 H   0  0  0  0  0  0  0  0  0  0  0  0
   -0.0252   -1.1162   -3.5997 H   0  0  0  0  0  0  0  0  0  0  0  0
    1.6589   -1.4921   -3.1453 H   0  0  0  0  0  0  0  0  0  0  0  0
   -0.7050   -3.3496   -0.0198 H   0  0  0  0  0  0  0  0  0  0  0  0
   -0.6310   -4.8096   -1.0398 H   0  0  0  0  0  0  0  0  0  0  0  0
    1.7822   -5.5049   -1.9264 H   0  0  0  0  0  0  0  0  0  0  0  0
    2.5960   -6.8919   -1.2388 H   0  0  0  0  0  0  0  0  0  0  0  0
   -0.4753   -2.7601    2.1389 H   0  0  0  0  0  0  0  0  0  0  0  0
    0.0418   -2.7640    4.5411 H   0  0  0  0  0  0  0  0  0  0  0  0
    1.7073   -4.2831    5.4851 H   0  0  0  0  0  0  0  0  0  0  0  0
    2.9393   -5.8829    4.0326 H   0  0  0  0  0  0  0  0  0  0  0  0
    4.0567   -6.8722    0.6163 H   0  0  0  0  0  0  0  0  0  0  0  0
    3.7844   -8.8775    1.8258 H   0  0  0  0  0  0  0  0  0  0  0  0
    2.2768   -8.2414    2.5113 H   0  0  0  0  0  0  0  0  0  0  0  0
    3.9040   -9.2413   -0.6981 H   0  0  0  0  0  0  0  0  0  0  0  0
    2.6654   -9.9605   -2.7001 H   0  0  0  0  0  0  0  0  0  0  0  0
    0.1990   -9.9398   -2.6998 H   0  0  0  0  0  0  0  0  0  0  0  0
   -1.0244   -9.1991   -0.6908 H   0  0  0  0  0  0  0  0  0  0  0  0
    0.2116   -8.4681    1.3087 H   0  0  0  0  0  0  0  0  0  0  0  0
  1  2  1  0  0  0  0
  2  3  4  0  0  0  0
  3  4  2  0  0  0  0
  3  5  1  0  0  0  0
  5  6  1  0  0  0  0
  6  7  4  0  0  0  0
  7  8  4  0  0  0  0
  7  9  4  0  0  0  0
  9 10  1  0  0  0  0
  6 11  1  0  0  0  0
 10 11  4  0  0  0  0
 11 12  4  0  0  0  0
 12 13  4  0  0  0  0
 13 14  4  0  0  0  0
 10 15  4  0  0  0  0
 14 15  4  0  0  0  0
  9 16  1  0  0  0  0
 16 17  1  0  0  0  0
 17 18  1  0  0  0  0
 18 19  4  0  0  0  0
 19 20  4  0  0  0  0
 20 21  4  0  0  0  0
 21 22  4  0  0  0  0
 18 23  4  0  0  0  0
 22 23  4  0  0  0  0
  1 24  1  0  0  0  0
  1 25  1  0  0  0  0
  1 26  1  0  0  0  0
  5 27  1  0  0  0  0
  5 28  1  0  0  0  0
  8 29  1  0  0  0  0
  8 30  1  0  0  0  0
 12 31  1  0  0  0  0
 13 32  1  0  0  0  0
 14 33  1  0  0  0  0
 15 34  1  0  0  0  0
 16 35  1  0  0  0  0
 17 36  1  0  0  0  0
 17 37  1  0  0  0  0
 19 38  1  0  0  0  0
 20 39  1  0  0  0  0
 21 40  1  0  0  0  0
 22 41  1  0  0  0  0
 23 42  1  0  0  0  0
M  CHG  1   1   1
M  END
