 xtb: 6.7.1 (edcfbbe)
          12202407213D

 34 34  0     0  0            999 V2000
    1.1845    0.2543    0.0036 C   0  0  0  0  0  0  0  0  0  0  0  0
    0.2692   -0.5495    0.7168 O   0  0  0  0  0  0  0  0  0  0  0  0
    0.6727   -1.1688    1.8418 C   0  0  0  0  0  0  0  0  0  0  0  0
   -0.2685   -2.0073    2.4492 C   0  0  0  0  0  0  0  0  0  0  0  0
    0.0423   -2.6887    3.6048 C   0  0  0  0  0  0  0  0  0  0  0  0
    1.2946   -2.5529    4.2007 C   0  0  0  0  0  0  0  0  0  0  0  0
    2.2281   -1.7262    3.5901 C   0  0  0  0  0  0  0  0  0  0  0  0
    1.9310   -1.0379    2.4282 C   0  0  0  0  0  0  0  0  0  0  0  0
    1.6464   -3.3069    5.4583 C   0  0  0  0  0  0  0  0  0  0  0  0
    1.8738   -2.4366    6.7003 C   0  0  0  0  0  0  0  0  0  0  0  0
    0.6823   -1.7249    7.2626 N   0  0  0  0  0  0  0  0  0  0  0  0
   -0.4492   -2.6494    7.4515 C   0  0  0  0  0  0  0  0  0  0  0  0
    1.0638   -1.1664    8.5750 C   0  0  0  0  0  0  0  0  0  0  0  0
    0.2639   -0.6172    6.3842 C   0  0  0  0  0  0  0  0  0  0  0  0
    0.6410    0.6115   -0.8686 H   0  0  0  0  0  0  0  0  0  0  0  0
    2.0528   -0.3247   -0.3230 H   0  0  0  0  0  0  0  0  0  0  0  0
    1.5149    1.1105    0.5990 H   0  0  0  0  0  0  0  0  0  0  0  0
   -1.2326   -2.1162    1.9805 H   0  0  0  0  0  0  0  0  0  0  0  0
   -0.6939   -3.3535    4.0358 H   0  0  0  0  0  0  0  0  0  0  0  0
    3.2165   -1.6277    4.0158 H   0  0  0  0  0  0  0  0  0  0  0  0
    2.6884   -0.4165    1.9793 H   0  0  0  0  0  0  0  0  0  0  0  0
    0.9007   -4.0770    5.6536 H   0  0  0  0  0  0  0  0  0  0  0  0
    2.5955   -3.8239    5.2935 H   0  0  0  0  0  0  0  0  0  0  0  0
    2.2672   -3.0762    7.4937 H   0  0  0  0  0  0  0  0  0  0  0  0
    2.6228   -1.6771    6.4679 H   0  0  0  0  0  0  0  0  0  0  0  0
   -0.1304   -3.5246    8.0150 H   0  0  0  0  0  0  0  0  0  0  0  0
   -1.2462   -2.1515    8.0010 H   0  0  0  0  0  0  0  0  0  0  0  0
   -0.8421   -2.9653    6.4884 H   0  0  0  0  0  0  0  0  0  0  0  0
    1.9330   -0.5193    8.4719 H   0  0  0  0  0  0  0  0  0  0  0  0
    0.2429   -0.5814    8.9863 H   0  0  0  0  0  0  0  0  0  0  0  0
    1.3042   -1.9658    9.2739 H   0  0  0  0  0  0  0  0  0  0  0  0
   -0.6024   -0.1136    6.8093 H   0  0  0  0  0  0  0  0  0  0  0  0
    1.0721    0.1038    6.2793 H   0  0  0  0  0  0  0  0  0  0  0  0
    0.0085   -0.9965    5.3959 H   0  0  0  0  0  0  0  0  0  0  0  0
  1  2  1  0  0  0  0
  2  3  1  0  0  0  0
  3  4  4  0  0  0  0
  4  5  4  0  0  0  0
  5  6  4  0  0  0  0
  6  7  4  0  0  0  0
  3  8  4  0  0  0  0
  7  8  4  0  0  0  0
  6  9  1  0  0  0  0
  9 10  1  0  0  0  0
 10 11  1  0  0  0  0
 11 12  1  0  0  0  0
 11 13  1  0  0  0  0
 11 14  1  0  0  0  0
  1 15  1  0  0  0  0
  1 16  1  0  0  0  0
  1 17  1  0  0  0  0
  4 18  1  0  0  0  0
  5 19  1  0  0  0  0
  7 20  1  0  0  0  0
  8 21  1  0  0  0  0
  9 22  1  0  0  0  0
  9 23  1  0  0  0  0
 10 24  1  0  0  0  0
 10 25  1  0  0  0  0
 12 26  1  0  0  0  0
 12 27  1  0  0  0  0
 12 28  1  0  0  0  0
 13 29  1  0  0  0  0
 13 30  1  0  0  0  0
 13 31  1  0  0  0  0
 14 32  1  0  0  0  0
 14 33  1  0  0  0  0
 14 34  1  0  0  0  0
M  CHG  1   1   1
M  END
