 xtb: 6.7.1 (edcfbbe)
          12202407213D

 22 22  0     0  0            999 V2000
    1.6197    0.6160    0.4124 Br  0  0  0  0  0  0  0  0  0  0  0  0
    3.4755   -0.0128    0.2384 C   0  0  0  0  0  0  0  0  0  0  0  0
    3.5358   -1.5274    0.1852 C   0  0  0  0  0  0  0  0  0  0  0  0
    2.6958   -2.1761   -0.9245 C   0  0  0  0  0  0  0  0  0  0  0  0
    3.0879   -1.7481   -2.2438 N   0  0  0  0  0  0  0  0  0  0  0  0
    2.6125   -0.6572   -2.9097 C   0  0  0  0  0  0  0  0  0  0  0  0
    3.2920   -0.5785   -4.0868 C   0  0  0  0  0  0  0  0  0  0  0  0
    4.1720   -1.6185   -4.1197 N   0  0  0  0  0  0  0  0  0  0  0  0
    4.0320   -2.3132   -2.9978 C   0  0  0  0  0  0  0  0  0  0  0  0
    5.0716   -1.9170   -5.2007 C   0  0  0  0  0  0  0  0  0  0  0  0
    5.4391   -2.0337   -0.0553 Br  0  0  0  0  0  0  0  0  0  0  0  0
    3.8826    0.4457   -0.6632 H   0  0  0  0  0  0  0  0  0  0  0  0
    4.0166    0.3629    1.1062 H   0  0  0  0  0  0  0  0  0  0  0  0
    3.2282   -1.9589    1.1403 H   0  0  0  0  0  0  0  0  0  0  0  0
    2.8015   -3.2617   -0.8601 H   0  0  0  0  0  0  0  0  0  0  0  0
    1.6463   -1.9113   -0.7660 H   0  0  0  0  0  0  0  0  0  0  0  0
    1.8336   -0.0336   -2.5170 H   0  0  0  0  0  0  0  0  0  0  0  0
    3.2071    0.1320   -4.8838 H   0  0  0  0  0  0  0  0  0  0  0  0
    4.5917   -3.1907   -2.7363 H   0  0  0  0  0  0  0  0  0  0  0  0
    5.8287   -2.6232   -4.8697 H   0  0  0  0  0  0  0  0  0  0  0  0
    4.5242   -2.3502   -6.0389 H   0  0  0  0  0  0  0  0  0  0  0  0
    5.5576   -1.0045   -5.5418 H   0  0  0  0  0  0  0  0  0  0  0  0
  1  2  1  0  0  0  0
  2  3  1  0  0  0  0
  3  4  1  0  0  0  0
  4  5  1  0  0  0  0
  5  6  4  0  0  0  0
  6  7  2  0  0  0  0
  7  8  4  0  0  0  0
  5  9  4  0  0  0  0
  8  9  4  0  0  0  0
  8 10  1  0  0  0  0
  3 11  1  0  0  0  0
  2 12  1  0  0  0  0
  2 13  1  0  0  0  0
  3 14  1  0  0  0  0
  4 15  1  0  0  0  0
  4 16  1  0  0  0  0
  6 17  1  0  0  0  0
  7 18  1  0  0  0  0
  9 19  1  0  0  0  0
 10 20  1  0  0  0  0
 10 21  1  0  0  0  0
 10 22  1  0  0  0  0
M  CHG  1   1   1
M  END
