 xtb: 6.7.1 (edcfbbe)
          12202407213D

 15 15  0     0  0            999 V2000
    1.2096   -0.0527   -0.0210 N   0  0  0  0  0  0  0  0  0  0  0  0
    0.2675   -1.2161   -0.1627 C   0  0  0  0  0  0  0  0  0  0  0  0
   -1.0861   -0.6675    0.2704 C   0  0  0  0  0  0  0  0  0  0  0  0
   -1.0302    0.7714   -0.2329 C   0  0  0  0  0  0  0  0  0  0  0  0
    0.3845    1.1940    0.1434 C   0  0  0  0  0  0  0  0  0  0  0  0
    1.8215   -0.1803    0.7892 H   0  0  0  0  0  0  0  0  0  0  0  0
    1.8118    0.0174   -0.8453 H   0  0  0  0  0  0  0  0  0  0  0  0
    0.6037   -2.0583    0.4389 H   0  0  0  0  0  0  0  0  0  0  0  0
    0.2361   -1.5190   -1.2094 H   0  0  0  0  0  0  0  0  0  0  0  0
   -1.9063   -1.2310   -0.1649 H   0  0  0  0  0  0  0  0  0  0  0  0
   -1.1898   -0.6912    1.3546 H   0  0  0  0  0  0  0  0  0  0  0  0
   -1.1754    0.8060   -1.3121 H   0  0  0  0  0  0  0  0  0  0  0  0
   -1.7770    1.4069    0.2340 H   0  0  0  0  0  0  0  0  0  0  0  0
    0.7735    1.9969   -0.4799 H   0  0  0  0  0  0  0  0  0  0  0  0
    0.4218    1.5068    1.1869 H   0  0  0  0  0  0  0  0  0  0  0  0
  1  2  1  0  0  0  0
  2  3  1  0  0  0  0
  3  4  1  0  0  0  0
  1  5  1  0  0  0  0
  4  5  1  0  0  0  0
  1  6  1  0  0  0  0
  1  7  1  0  0  0  0
  2  8  1  0  0  0  0
  2  9  1  0  0  0  0
  3 10  1  0  0  0  0
  3 11  1  0  0  0  0
  4 12  1  0  0  0  0
  4 13  1  0  0  0  0
  5 14  1  0  0  0  0
  5 15  1  0  0  0  0
M  CHG  1   1   1
M  END
