 xtb: 6.7.1 (edcfbbe)
          12202407213D

 12 11  0     0  0            999 V2000
    0.9904    0.0355    0.0450 C   0  0  0  0  0  0  0  0  0  0  0  0
    0.3480    1.2225    1.2574 S   0  0  0  0  0  0  0  0  0  0  0  0
    0.9682    0.6470    2.7664 C   0  0  0  0  0  0  0  0  0  0  0  0
    1.7277   -0.4308    2.8619 N   0  0  0  0  0  0  0  0  0  0  0  0
    0.6419    1.3475    3.8407 N   0  0  0  0  0  0  0  0  0  0  0  0
    0.6104    0.3809   -0.9137 H   0  0  0  0  0  0  0  0  0  0  0  0
    0.5992   -0.9588    0.2405 H   0  0  0  0  0  0  0  0  0  0  0  0
    2.0761    0.0626    0.0231 H   0  0  0  0  0  0  0  0  0  0  0  0
    2.0776   -0.7465    3.7551 H   0  0  0  0  0  0  0  0  0  0  0  0
    1.9820   -0.9713    2.0503 H   0  0  0  0  0  0  0  0  0  0  0  0
    0.0618    2.1684    3.7563 H   0  0  0  0  0  0  0  0  0  0  0  0
    0.9556    1.0908    4.7652 H   0  0  0  0  0  0  0  0  0  0  0  0
  1  2  1  0  0  0  0
  2  3  1  0  0  0  0
  3  4  4  0  0  0  0
  3  5  4  0  0  0  0
  1  6  1  0  0  0  0
  1  7  1  0  0  0  0
  1  8  1  0  0  0  0
  4  9  1  0  0  0  0
  4 10  1  0  0  0  0
  5 11  1  0  0  0  0
  5 12  1  0  0  0  0
M  CHG  1   1   1
M  END
