34

C          1.52530       -0.53229        0.74713
C          0.87712        0.58030       -0.06227
C          1.05548        0.39413       -1.56497
N          0.35495       -0.79281       -2.06592
C         -1.00114       -0.89324       -2.32581
C         -1.21832       -2.15361       -2.80662
N          0.01236       -2.78751       -2.84021
C          0.95921       -1.95111       -2.37842
C          0.28170       -4.15820       -3.31620
C          1.38852       -4.16506       -4.36324
O          2.44874       -3.56615       -4.17113
C          1.20487       -4.94319       -5.61476
C          2.33343       -5.54047       -6.19094
C          2.21091       -6.27607       -7.37008
C          0.96616       -6.40724       -7.98275
C         -0.15638       -5.79764       -7.42354
C         -0.04096       -5.06106       -6.24200
H          1.05193       -1.49824        0.54669
H          1.42505       -0.32657        1.81757
H          2.59201       -0.61575        0.51623
H         -0.18893        0.63115        0.18650
H          1.32399        1.53710        0.23115
H          0.65833        1.26490       -2.09958
H          2.11705        0.30916       -1.82392
H         -1.63780       -0.04702       -2.13237
H         -2.09740       -2.68012       -3.13648
H          2.01780       -2.16319       -2.26932
H          0.61811       -4.75138       -2.45870
H         -0.64814       -4.59831       -3.68098
H          3.31461       -5.43774       -5.73001
H          3.08741       -6.74189       -7.81625
H          0.87380       -6.97606       -8.90622
H         -1.12001       -5.88950       -7.92131
H         -0.93095       -4.56994       -5.86170
